gem5 Simulator System.  http://gem5.org
gem5 is copyrighted software; use the --copyright option for details.

gem5 compiled Nov 16 2018 20:47:01
gem5 started Nov 16 2018 20:47:16
gem5 executing on gulsum-XPS-15-9570, pid 21490
command line: build/ARM/gem5.opt --debug-flag=EnergyMgmt,SimpleCPU configs/example/simple_engy.py

Global frequency set at 1000000000000 ticks per second
      0: global: [EngyPort] energy port connected. master: system.energy_mgmt, slave: system.cpu
      0: system.energy_mgmt: [EngyMgmt] Input file read!
      0: system.energy_mgmt: [EngyMgmt] Energy Management module initialized!
      0: system.energy_mgmt: [EngyMgmt] Energy profile: profile/energy_prof2(Time unit: 1000000 ticks)
      0: system.energy_mgmt: [EngyMgmt] The capacitypython line length is 0.2.
      0: system.energy_mgmt.state_machine: [SM_Retention] State = 0, energy=0, thres_ret_1 = 130
      0: system.energy_mgmt: end of consume energy!
      0: system.energy_mgmt.harvest_module: [EngyHarvest] SimpleHarvesterer is used in this system.
      0: system.energy_mgmt.state_machine: [SimpleEngySM] State machine Initialized
      0: system.cpu: ActivateContext 0
      0: system.cpu: Tick scheduled from  activateContext
      0: system.cpu.dcache_port: received snoop pkt for addr:0 WriteReq
      0: system.cpu.dcache_port: received snoop pkt for addr:0x40 WriteReq
      0: system.cpu.dcache_port: received snoop pkt for addr:0x80 WriteReq
      0: system.cpu.dcache_port: received snoop pkt for addr:0xc0 WriteReq
      0: system.cpu.dcache_port: received snoop pkt for addr:0x100 WriteReq
      0: system.cpu.dcache_port: received snoop pkt for addr:0x140 WriteReq
      0: system.cpu.dcache_port: received snoop pkt for addr:0x180 WriteReq
      0: system.cpu.dcache_port: received snoop pkt for addr:0x1c0 WriteReq
      0: system.cpu.dcache_port: received snoop pkt for addr:0x200 WriteReq
      0: system.cpu.dcache_port: received snoop pkt for addr:0x240 WriteReq
      0: system.cpu.dcache_port: received snoop pkt for addr:0x280 WriteReq
      0: system.cpu.dcache_port: received snoop pkt for addr:0x2c0 WriteReq
      0: system.cpu.dcache_port: received snoop pkt for addr:0x300 WriteReq
      0: system.cpu.dcache_port: received snoop pkt for addr:0x340 WriteReq
      0: system.cpu.dcache_port: received snoop pkt for addr:0x380 WriteReq
      0: system.cpu.dcache_port: received snoop pkt for addr:0x3c0 WriteReq
      0: system.cpu.dcache_port: received snoop pkt for addr:0x400 WriteReq
      0: system.cpu.dcache_port: received snoop pkt for addr:0x440 WriteReq
      0: system.cpu.dcache_port: received snoop pkt for addr:0x480 WriteReq
      0: system.cpu.dcache_port: received snoop pkt for addr:0x4c0 WriteReq
      0: system.cpu.dcache_port: received snoop pkt for addr:0x500 WriteReq
      0: system.cpu.dcache_port: received snoop pkt for addr:0x540 WriteReq
      0: system.cpu.dcache_port: received snoop pkt for addr:0x580 WriteReq
      0: system.cpu.dcache_port: received snoop pkt for addr:0x5c0 WriteReq
      0: system.cpu.dcache_port: received snoop pkt for addr:0x600 WriteReq
      0: system.cpu.dcache_port: received snoop pkt for addr:0x640 WriteReq
      0: system.cpu.dcache_port: received snoop pkt for addr:0x680 WriteReq
      0: system.cpu.dcache_port: received snoop pkt for addr:0x6c0 WriteReq
      0: system.cpu.dcache_port: received snoop pkt for addr:0x700 WriteReq
      0: system.cpu.dcache_port: received snoop pkt for addr:0x740 WriteReq
      0: system.cpu.dcache_port: received snoop pkt for addr:0x780 WriteReq
      0: system.cpu.dcache_port: received snoop pkt for addr:0x7c0 WriteReq
      0: system.cpu.dcache_port: received snoop pkt for addr:0x800 WriteReq
      0: system.cpu.dcache_port: received snoop pkt for addr:0x840 WriteReq
      0: system.cpu.dcache_port: received snoop pkt for addr:0x880 WriteReq
      0: system.cpu.dcache_port: received snoop pkt for addr:0x8c0 WriteReq
      0: system.cpu.dcache_port: received snoop pkt for addr:0x900 WriteReq
      0: system.cpu.dcache_port: received snoop pkt for addr:0x940 WriteReq
      0: system.cpu.dcache_port: received snoop pkt for addr:0x980 WriteReq
      0: system.cpu.dcache_port: received snoop pkt for addr:0x9c0 WriteReq
      0: system.cpu.dcache_port: received snoop pkt for addr:0xa00 WriteReq
      0: system.cpu.dcache_port: received snoop pkt for addr:0xa40 WriteReq
      0: system.cpu.dcache_port: received snoop pkt for addr:0xa80 WriteReq
      0: system.cpu.dcache_port: received snoop pkt for addr:0xac0 WriteReq
      0: system.cpu.dcache_port: received snoop pkt for addr:0xb00 WriteReq
      0: system.cpu.dcache_port: received snoop pkt for addr:0xb40 WriteReq
      0: system.cpu.dcache_port: received snoop pkt for addr:0xb80 WriteReq
      0: system.cpu.dcache_port: received snoop pkt for addr:0xbc0 WriteReq
      0: system.cpu.dcache_port: received snoop pkt for addr:0xc00 WriteReq
      0: system.cpu.dcache_port: received snoop pkt for addr:0xc40 WriteReq
      0: system.cpu.dcache_port: received snoop pkt for addr:0xc80 WriteReq
      0: system.cpu.dcache_port: received snoop pkt for addr:0xcc0 WriteReq
      0: system.cpu.dcache_port: received snoop pkt for addr:0xd00 WriteReq
      0: system.cpu.dcache_port: received snoop pkt for addr:0xd40 WriteReq
      0: system.cpu.dcache_port: received snoop pkt for addr:0xd80 WriteReq
      0: system.cpu.dcache_port: received snoop pkt for addr:0xdc0 WriteReq
      0: system.cpu.dcache_port: received snoop pkt for addr:0xe00 WriteReq
      0: system.cpu.dcache_port: received snoop pkt for addr:0xe40 WriteReq
      0: system.cpu.dcache_port: received snoop pkt for addr:0xe80 WriteReq
      0: system.cpu.dcache_port: received snoop pkt for addr:0xec0 WriteReq
      0: system.cpu.dcache_port: received snoop pkt for addr:0xf00 WriteReq
      0: system.cpu.dcache_port: received snoop pkt for addr:0xf40 WriteReq
      0: system.cpu.dcache_port: received snoop pkt for addr:0xf80 WriteReq
      0: system.cpu.dcache_port: received snoop pkt for addr:0xfc0 WriteReq
      0: system.cpu.dcache_port: received snoop pkt for addr:0x1000 WriteReq
      0: system.cpu.dcache_port: received snoop pkt for addr:0x1040 WriteReq
      0: system.cpu.dcache_port: received snoop pkt for addr:0x1080 WriteReq
      0: system.cpu.dcache_port: received snoop pkt for addr:0x10c0 WriteReq
      0: system.cpu.dcache_port: received snoop pkt for addr:0x1100 WriteReq
      0: system.cpu.dcache_port: received snoop pkt for addr:0x1140 WriteReq
      0: system.cpu.dcache_port: received snoop pkt for addr:0x1180 WriteReq
      0: system.cpu.dcache_port: received snoop pkt for addr:0x11c0 WriteReq
      0: system.cpu.dcache_port: received snoop pkt for addr:0x1200 WriteReq
      0: system.cpu.dcache_port: received snoop pkt for addr:0x1240 WriteReq
      0: system.cpu.dcache_port: received snoop pkt for addr:0x1280 WriteReq
      0: system.cpu.dcache_port: received snoop pkt for addr:0x12c0 WriteReq
      0: system.cpu.dcache_port: received snoop pkt for addr:0x1300 WriteReq
      0: system.cpu.dcache_port: received snoop pkt for addr:0x1340 WriteReq
      0: system.cpu.dcache_port: received snoop pkt for addr:0x1380 WriteReq
      0: system.cpu.dcache_port: received snoop pkt for addr:0x13c0 WriteReq
      0: system.cpu.dcache_port: received snoop pkt for addr:0x1400 WriteReq
      0: system.cpu.dcache_port: received snoop pkt for addr:0x1440 WriteReq
      0: system.cpu.dcache_port: received snoop pkt for addr:0x1480 WriteReq
      0: system.cpu.dcache_port: received snoop pkt for addr:0x14c0 WriteReq
      0: system.cpu.dcache_port: received snoop pkt for addr:0x1500 WriteReq
      0: system.cpu.dcache_port: received snoop pkt for addr:0x1540 WriteReq
      0: system.cpu.dcache_port: received snoop pkt for addr:0x1580 WriteReq
      0: system.cpu.dcache_port: received snoop pkt for addr:0x15c0 WriteReq
      0: system.cpu.dcache_port: received snoop pkt for addr:0x1600 WriteReq
      0: system.cpu.dcache_port: received snoop pkt for addr:0x1640 WriteReq
      0: system.cpu.dcache_port: received snoop pkt for addr:0x1680 WriteReq
      0: system.cpu.dcache_port: received snoop pkt for addr:0x16c0 WriteReq
      0: system.cpu.dcache_port: received snoop pkt for addr:0x1700 WriteReq
      0: system.cpu.dcache_port: received snoop pkt for addr:0x1740 WriteReq
      0: system.cpu.dcache_port: received snoop pkt for addr:0x1780 WriteReq
      0: system.cpu.dcache_port: received snoop pkt for addr:0x17c0 WriteReq
      0: system.cpu.dcache_port: received snoop pkt for addr:0x1800 WriteReq
      0: system.cpu.dcache_port: received snoop pkt for addr:0x1840 WriteReq
      0: system.cpu.dcache_port: received snoop pkt for addr:0x1880 WriteReq
      0: system.cpu.dcache_port: received snoop pkt for addr:0x18c0 WriteReq
      0: system.cpu.dcache_port: received snoop pkt for addr:0x1900 WriteReq
      0: system.cpu.dcache_port: received snoop pkt for addr:0x1940 WriteReq
      0: system.cpu.dcache_port: received snoop pkt for addr:0x1980 WriteReq
      0: system.cpu.dcache_port: received snoop pkt for addr:0x19c0 WriteReq
      0: system.cpu.dcache_port: received snoop pkt for addr:0x1a00 WriteReq
      0: system.cpu.dcache_port: received snoop pkt for addr:0x1a40 WriteReq
      0: system.cpu.dcache_port: received snoop pkt for addr:0x1a80 WriteReq
      0: system.cpu.dcache_port: received snoop pkt for addr:0x1ac0 WriteReq
      0: system.cpu.dcache_port: received snoop pkt for addr:0x1b00 WriteReq
      0: system.cpu.dcache_port: received snoop pkt for addr:0x1b40 WriteReq
      0: system.cpu.dcache_port: received snoop pkt for addr:0x1b80 WriteReq
      0: system.cpu.dcache_port: received snoop pkt for addr:0x1bc0 WriteReq
      0: system.cpu.dcache_port: received snoop pkt for addr:0x1c00 WriteReq
      0: system.cpu.dcache_port: received snoop pkt for addr:0x1c40 WriteReq
      0: system.cpu.dcache_port: received snoop pkt for addr:0x1c80 WriteReq
      0: system.cpu.dcache_port: received snoop pkt for addr:0x1cc0 WriteReq
      0: system.cpu.dcache_port: received snoop pkt for addr:0x1d00 WriteReq
      0: system.cpu.dcache_port: received snoop pkt for addr:0x1d40 WriteReq
      0: system.cpu.dcache_port: received snoop pkt for addr:0x1d80 WriteReq
      0: system.cpu.dcache_port: received snoop pkt for addr:0x1dc0 WriteReq
      0: system.cpu.dcache_port: received snoop pkt for addr:0x1e00 WriteReq
      0: system.cpu.dcache_port: received snoop pkt for addr:0x1e40 WriteReq
      0: system.cpu.dcache_port: received snoop pkt for addr:0x1e80 WriteReq
      0: system.cpu.dcache_port: received snoop pkt for addr:0x1ec0 WriteReq
      0: system.cpu.dcache_port: received snoop pkt for addr:0x1f00 WriteReq
      0: system.cpu.dcache_port: received snoop pkt for addr:0x1f40 WriteReq
      0: system.cpu.dcache_port: received snoop pkt for addr:0x1f80 WriteReq
      0: system.cpu.dcache_port: received snoop pkt for addr:0x1fc0 WriteReq
      0: system.cpu.dcache_port: received snoop pkt for addr:0x2000 WriteReq
      0: system.cpu.dcache_port: received snoop pkt for addr:0x2040 WriteReq
      0: system.cpu.dcache_port: received snoop pkt for addr:0x2080 WriteReq
      0: system.cpu.dcache_port: received snoop pkt for addr:0x20c0 WriteReq
      0: system.cpu.dcache_port: received snoop pkt for addr:0x2100 WriteReq
      0: system.cpu.dcache_port: received snoop pkt for addr:0x2140 WriteReq
      0: system.cpu.dcache_port: received snoop pkt for addr:0x2180 WriteReq
      0: system.cpu.dcache_port: received snoop pkt for addr:0x21c0 WriteReq
      0: system.cpu.dcache_port: received snoop pkt for addr:0x2200 WriteReq
      0: system.cpu.dcache_port: received snoop pkt for addr:0x2240 WriteReq
      0: system.cpu.dcache_port: received snoop pkt for addr:0x2280 WriteReq
      0: system.cpu.dcache_port: received snoop pkt for addr:0x22c0 WriteReq
      0: system.cpu.dcache_port: received snoop pkt for addr:0x2300 WriteReq
      0: system.cpu.dcache_port: received snoop pkt for addr:0x2340 WriteReq
      0: system.cpu.dcache_port: received snoop pkt for addr:0x2380 WriteReq
      0: system.cpu.dcache_port: received snoop pkt for addr:0x23c0 WriteReq
      0: system.cpu.dcache_port: received snoop pkt for addr:0x2400 WriteReq
      0: system.cpu.dcache_port: received snoop pkt for addr:0x2440 WriteReq
      0: system.cpu.dcache_port: received snoop pkt for addr:0x2480 WriteReq
      0: system.cpu.dcache_port: received snoop pkt for addr:0x24c0 WriteReq
      0: system.cpu.dcache_port: received snoop pkt for addr:0x2500 WriteReq
      0: system.cpu.dcache_port: received snoop pkt for addr:0x2540 WriteReq
      0: system.cpu.dcache_port: received snoop pkt for addr:0x2580 WriteReq
      0: system.cpu.dcache_port: received snoop pkt for addr:0x25c0 WriteReq
      0: system.cpu.dcache_port: received snoop pkt for addr:0x2600 WriteReq
      0: system.cpu.dcache_port: received snoop pkt for addr:0x2640 WriteReq
      0: system.cpu.dcache_port: received snoop pkt for addr:0x2680 WriteReq
      0: system.cpu.dcache_port: received snoop pkt for addr:0x26c0 WriteReq
      0: system.cpu.dcache_port: received snoop pkt for addr:0x2700 WriteReq
      0: system.cpu.dcache_port: received snoop pkt for addr:0x2740 WriteReq
      0: system.cpu.dcache_port: received snoop pkt for addr:0x2780 WriteReq
      0: system.cpu.dcache_port: received snoop pkt for addr:0x27c0 WriteReq
      0: system.cpu.dcache_port: received snoop pkt for addr:0x2800 WriteReq
      0: system.cpu.dcache_port: received snoop pkt for addr:0x2840 WriteReq
      0: system.cpu.dcache_port: received snoop pkt for addr:0x2880 WriteReq
      0: system.cpu.dcache_port: received snoop pkt for addr:0x28c0 WriteReq
      0: system.cpu.dcache_port: received snoop pkt for addr:0x2900 WriteReq
      0: system.cpu.dcache_port: received snoop pkt for addr:0x2940 WriteReq
      0: system.cpu.dcache_port: received snoop pkt for addr:0x2980 WriteReq
      0: system.cpu.dcache_port: received snoop pkt for addr:0x29c0 WriteReq
      0: system.cpu.dcache_port: received snoop pkt for addr:0x2a00 WriteReq
      0: system.cpu.dcache_port: received snoop pkt for addr:0x2a40 WriteReq
      0: system.cpu.dcache_port: received snoop pkt for addr:0x2a80 WriteReq
      0: system.cpu.dcache_port: received snoop pkt for addr:0x2ac0 WriteReq
      0: system.cpu.dcache_port: received snoop pkt for addr:0x2b00 WriteReq
      0: system.cpu.dcache_port: received snoop pkt for addr:0x2b40 WriteReq
      0: system.cpu.dcache_port: received snoop pkt for addr:0x2b80 WriteReq
      0: system.cpu.dcache_port: received snoop pkt for addr:0x2bc0 WriteReq
      0: system.cpu.dcache_port: received snoop pkt for addr:0x2c00 WriteReq
      0: system.cpu.dcache_port: received snoop pkt for addr:0x2c40 WriteReq
      0: system.cpu.dcache_port: received snoop pkt for addr:0x2c80 WriteReq
      0: system.cpu.dcache_port: received snoop pkt for addr:0x2cc0 WriteReq
      0: system.cpu.dcache_port: received snoop pkt for addr:0x2d00 WriteReq
      0: system.cpu.dcache_port: received snoop pkt for addr:0x2d40 WriteReq
      0: system.cpu.dcache_port: received snoop pkt for addr:0x2d80 WriteReq
      0: system.cpu.dcache_port: received snoop pkt for addr:0x2dc0 WriteReq
      0: system.cpu.dcache_port: received snoop pkt for addr:0x2e00 WriteReq
      0: system.cpu.dcache_port: received snoop pkt for addr:0x2e40 WriteReq
      0: system.cpu.dcache_port: received snoop pkt for addr:0x2e80 WriteReq
      0: system.cpu.dcache_port: received snoop pkt for addr:0x2ec0 WriteReq
      0: system.cpu.dcache_port: received snoop pkt for addr:0x2f00 WriteReq
      0: system.cpu.dcache_port: received snoop pkt for addr:0x2f40 WriteReq
      0: system.cpu.dcache_port: received snoop pkt for addr:0x2f80 WriteReq
      0: system.cpu.dcache_port: received snoop pkt for addr:0x2fc0 WriteReq
      0: system.cpu.dcache_port: received snoop pkt for addr:0x3000 WriteReq
      0: system.cpu.dcache_port: received snoop pkt for addr:0x3040 WriteReq
      0: system.cpu.dcache_port: received snoop pkt for addr:0x3080 WriteReq
      0: system.cpu.dcache_port: received snoop pkt for addr:0x30c0 WriteReq
      0: system.cpu.dcache_port: received snoop pkt for addr:0x3100 WriteReq
      0: system.cpu.dcache_port: received snoop pkt for addr:0x3140 WriteReq
      0: system.cpu.dcache_port: received snoop pkt for addr:0x3180 WriteReq
      0: system.cpu.dcache_port: received snoop pkt for addr:0x31c0 WriteReq
      0: system.cpu.dcache_port: received snoop pkt for addr:0x3200 WriteReq
      0: system.cpu.dcache_port: received snoop pkt for addr:0x3240 WriteReq
      0: system.cpu.dcache_port: received snoop pkt for addr:0x3280 WriteReq
      0: system.cpu.dcache_port: received snoop pkt for addr:0x32c0 WriteReq
      0: system.cpu.dcache_port: received snoop pkt for addr:0x3300 WriteReq
      0: system.cpu.dcache_port: received snoop pkt for addr:0x3340 WriteReq
      0: system.cpu.dcache_port: received snoop pkt for addr:0x3380 WriteReq
      0: system.cpu.dcache_port: received snoop pkt for addr:0x33c0 WriteReq
      0: system.cpu.dcache_port: received snoop pkt for addr:0x3400 WriteReq
      0: system.cpu.dcache_port: received snoop pkt for addr:0x3440 WriteReq
      0: system.cpu.dcache_port: received snoop pkt for addr:0x3480 WriteReq
      0: system.cpu.dcache_port: received snoop pkt for addr:0x34c0 WriteReq
      0: system.cpu.dcache_port: received snoop pkt for addr:0x3500 WriteReq
      0: system.cpu.dcache_port: received snoop pkt for addr:0x3540 WriteReq
      0: system.cpu.dcache_port: received snoop pkt for addr:0x3580 WriteReq
      0: system.cpu.dcache_port: received snoop pkt for addr:0x35c0 WriteReq
      0: system.cpu.dcache_port: received snoop pkt for addr:0x3600 WriteReq
      0: system.cpu.dcache_port: received snoop pkt for addr:0x3640 WriteReq
      0: system.cpu.dcache_port: received snoop pkt for addr:0x3680 WriteReq
      0: system.cpu.dcache_port: received snoop pkt for addr:0x36c0 WriteReq
      0: system.cpu.dcache_port: received snoop pkt for addr:0x3700 WriteReq
      0: system.cpu.dcache_port: received snoop pkt for addr:0x3740 WriteReq
      0: system.cpu.dcache_port: received snoop pkt for addr:0x3780 WriteReq
      0: system.cpu.dcache_port: received snoop pkt for addr:0x37c0 WriteReq
      0: system.cpu.dcache_port: received snoop pkt for addr:0x3800 WriteReq
      0: system.cpu.dcache_port: received snoop pkt for addr:0x3840 WriteReq
      0: system.cpu.dcache_port: received snoop pkt for addr:0x3880 WriteReq
      0: system.cpu.dcache_port: received snoop pkt for addr:0x38c0 WriteReq
      0: system.cpu.dcache_port: received snoop pkt for addr:0x3900 WriteReq
      0: system.cpu.dcache_port: received snoop pkt for addr:0x3940 WriteReq
      0: system.cpu.dcache_port: received snoop pkt for addr:0x3980 WriteReq
      0: system.cpu.dcache_port: received snoop pkt for addr:0x39c0 WriteReq
      0: system.cpu.dcache_port: received snoop pkt for addr:0x3a00 WriteReq
      0: system.cpu.dcache_port: received snoop pkt for addr:0x3a40 WriteReq
      0: system.cpu.dcache_port: received snoop pkt for addr:0x3a80 WriteReq
      0: system.cpu.dcache_port: received snoop pkt for addr:0x3ac0 WriteReq
      0: system.cpu.dcache_port: received snoop pkt for addr:0x3b00 WriteReq
      0: system.cpu.dcache_port: received snoop pkt for addr:0x3b40 WriteReq
      0: system.cpu.dcache_port: received snoop pkt for addr:0x3b80 WriteReq
      0: system.cpu.dcache_port: received snoop pkt for addr:0x3bc0 WriteReq
      0: system.cpu.dcache_port: received snoop pkt for addr:0x3c00 WriteReq
      0: system.cpu.dcache_port: received snoop pkt for addr:0x3c40 WriteReq
      0: system.cpu.dcache_port: received snoop pkt for addr:0x3c80 WriteReq
      0: system.cpu.dcache_port: received snoop pkt for addr:0x3cc0 WriteReq
      0: system.cpu.dcache_port: received snoop pkt for addr:0x3d00 WriteReq
      0: system.cpu.dcache_port: received snoop pkt for addr:0x3d40 WriteReq
      0: system.cpu.dcache_port: received snoop pkt for addr:0x3d80 WriteReq
      0: system.cpu.dcache_port: received snoop pkt for addr:0x3dc0 WriteReq
      0: system.cpu.dcache_port: received snoop pkt for addr:0x3e00 WriteReq
      0: system.cpu.dcache_port: received snoop pkt for addr:0x3e40 WriteReq
      0: system.cpu.dcache_port: received snoop pkt for addr:0x3e80 WriteReq
      0: system.cpu.dcache_port: received snoop pkt for addr:0x3ec0 WriteReq
      0: system.cpu.dcache_port: received snoop pkt for addr:0x3f00 WriteReq
      0: system.cpu.dcache_port: received snoop pkt for addr:0x3f40 WriteReq
      0: system.cpu.dcache_port: received snoop pkt for addr:0x3f80 WriteReq
      0: system.cpu.dcache_port: received snoop pkt for addr:0x3fc0 WriteReq
      0: system.cpu.dcache_port: received snoop pkt for addr:0x4000 WriteReq
      0: system.cpu.dcache_port: received snoop pkt for addr:0x4040 WriteReq
      0: system.cpu.dcache_port: received snoop pkt for addr:0x4080 WriteReq
      0: system.cpu.dcache_port: received snoop pkt for addr:0x40c0 WriteReq
      0: system.cpu.dcache_port: received snoop pkt for addr:0x4100 WriteReq
      0: system.cpu.dcache_port: received snoop pkt for addr:0x4140 WriteReq
      0: system.cpu.dcache_port: received snoop pkt for addr:0x4180 WriteReq
      0: system.cpu.dcache_port: received snoop pkt for addr:0x41c0 WriteReq
      0: system.cpu.dcache_port: received snoop pkt for addr:0x4200 WriteReq
      0: system.cpu.dcache_port: received snoop pkt for addr:0x4240 WriteReq
      0: system.cpu.dcache_port: received snoop pkt for addr:0x4280 WriteReq
      0: system.cpu.dcache_port: received snoop pkt for addr:0x42c0 WriteReq
      0: system.cpu.dcache_port: received snoop pkt for addr:0x4300 WriteReq
      0: system.cpu.dcache_port: received snoop pkt for addr:0x4340 WriteReq
      0: system.cpu.dcache_port: received snoop pkt for addr:0x4380 WriteReq
      0: system.cpu.dcache_port: received snoop pkt for addr:0x43c0 WriteReq
      0: system.cpu.dcache_port: received snoop pkt for addr:0x4400 WriteReq
      0: system.cpu.dcache_port: received snoop pkt for addr:0x4440 WriteReq
      0: system.cpu.dcache_port: received snoop pkt for addr:0x4480 WriteReq
      0: system.cpu.dcache_port: received snoop pkt for addr:0x44c0 WriteReq
      0: system.cpu.dcache_port: received snoop pkt for addr:0x4500 WriteReq
      0: system.cpu.dcache_port: received snoop pkt for addr:0x4540 WriteReq
      0: system.cpu.dcache_port: received snoop pkt for addr:0x4580 WriteReq
      0: system.cpu.dcache_port: received snoop pkt for addr:0x45c0 WriteReq
      0: system.cpu.dcache_port: received snoop pkt for addr:0x4600 WriteReq
      0: system.cpu.dcache_port: received snoop pkt for addr:0x4640 WriteReq
      0: system.cpu.dcache_port: received snoop pkt for addr:0x4680 WriteReq
      0: system.cpu.dcache_port: received snoop pkt for addr:0x46c0 WriteReq
      0: system.cpu.dcache_port: received snoop pkt for addr:0x4700 WriteReq
      0: system.cpu.dcache_port: received snoop pkt for addr:0x4740 WriteReq
      0: system.cpu.dcache_port: received snoop pkt for addr:0x4780 WriteReq
      0: system.cpu.dcache_port: received snoop pkt for addr:0x47c0 WriteReq
      0: system.cpu.dcache_port: received snoop pkt for addr:0x4800 WriteReq
      0: system.cpu.dcache_port: received snoop pkt for addr:0x4840 WriteReq
      0: system.cpu.dcache_port: received snoop pkt for addr:0x4880 WriteReq
      0: system.cpu.dcache_port: received snoop pkt for addr:0x48c0 WriteReq
      0: system.cpu.dcache_port: received snoop pkt for addr:0x4900 WriteReq
      0: system.cpu.dcache_port: received snoop pkt for addr:0x4940 WriteReq
      0: system.cpu.dcache_port: received snoop pkt for addr:0x4980 WriteReq
      0: system.cpu.dcache_port: received snoop pkt for addr:0x49c0 WriteReq
      0: system.cpu.dcache_port: received snoop pkt for addr:0x4a00 WriteReq
      0: system.cpu.dcache_port: received snoop pkt for addr:0x4a40 WriteReq
      0: system.cpu.dcache_port: received snoop pkt for addr:0x4a80 WriteReq
      0: system.cpu.dcache_port: received snoop pkt for addr:0x4ac0 WriteReq
      0: system.cpu.dcache_port: received snoop pkt for addr:0x4b00 WriteReq
      0: system.cpu.dcache_port: received snoop pkt for addr:0x4b40 WriteReq
      0: system.cpu.dcache_port: received snoop pkt for addr:0x4b80 WriteReq
      0: system.cpu.dcache_port: received snoop pkt for addr:0x4bc0 WriteReq
      0: system.cpu.dcache_port: received snoop pkt for addr:0x4c00 WriteReq
      0: system.cpu.dcache_port: received snoop pkt for addr:0x4c40 WriteReq
      0: system.cpu.dcache_port: received snoop pkt for addr:0x4c80 WriteReq
      0: system.cpu.dcache_port: received snoop pkt for addr:0x4cc0 WriteReq
      0: system.cpu.dcache_port: received snoop pkt for addr:0x4d00 WriteReq
      0: system.cpu.dcache_port: received snoop pkt for addr:0x4d40 WriteReq
      0: system.cpu.dcache_port: received snoop pkt for addr:0x4d80 WriteReq
      0: system.cpu.dcache_port: received snoop pkt for addr:0x4dc0 WriteReq
      0: system.cpu.dcache_port: received snoop pkt for addr:0x4e00 WriteReq
      0: system.cpu.dcache_port: received snoop pkt for addr:0x4e40 WriteReq
      0: system.cpu.dcache_port: received snoop pkt for addr:0x4e80 WriteReq
      0: system.cpu.dcache_port: received snoop pkt for addr:0x4ec0 WriteReq
      0: system.cpu.dcache_port: received snoop pkt for addr:0x4f00 WriteReq
      0: system.cpu.dcache_port: received snoop pkt for addr:0x4f40 WriteReq
      0: system.cpu.dcache_port: received snoop pkt for addr:0x4f80 WriteReq
      0: system.cpu.dcache_port: received snoop pkt for addr:0x4fc0 WriteReq
      0: system.cpu.dcache_port: received snoop pkt for addr:0x5000 WriteReq
      0: system.cpu.dcache_port: received snoop pkt for addr:0x5040 WriteReq
      0: system.cpu.dcache_port: received snoop pkt for addr:0x5080 WriteReq
      0: system.cpu.dcache_port: received snoop pkt for addr:0x50c0 WriteReq
      0: system.cpu.dcache_port: received snoop pkt for addr:0x5100 WriteReq
      0: system.cpu.dcache_port: received snoop pkt for addr:0x5140 WriteReq
      0: system.cpu.dcache_port: received snoop pkt for addr:0x5180 WriteReq
      0: system.cpu.dcache_port: received snoop pkt for addr:0x51c0 WriteReq
      0: system.cpu.dcache_port: received snoop pkt for addr:0x5200 WriteReq
      0: system.cpu.dcache_port: received snoop pkt for addr:0x5240 WriteReq
      0: system.cpu.dcache_port: received snoop pkt for addr:0x5280 WriteReq
      0: system.cpu.dcache_port: received snoop pkt for addr:0x52c0 WriteReq
      0: system.cpu.dcache_port: received snoop pkt for addr:0x5300 WriteReq
      0: system.cpu.dcache_port: received snoop pkt for addr:0x5340 WriteReq
      0: system.cpu.dcache_port: received snoop pkt for addr:0x5380 WriteReq
      0: system.cpu.dcache_port: received snoop pkt for addr:0x53c0 WriteReq
      0: system.cpu.dcache_port: received snoop pkt for addr:0x5400 WriteReq
      0: system.cpu.dcache_port: received snoop pkt for addr:0x5440 WriteReq
      0: system.cpu.dcache_port: received snoop pkt for addr:0x5480 WriteReq
      0: system.cpu.dcache_port: received snoop pkt for addr:0x54c0 WriteReq
      0: system.cpu.dcache_port: received snoop pkt for addr:0x5500 WriteReq
      0: system.cpu.dcache_port: received snoop pkt for addr:0x5540 WriteReq
      0: system.cpu.dcache_port: received snoop pkt for addr:0x5580 WriteReq
      0: system.cpu.dcache_port: received snoop pkt for addr:0x55c0 WriteReq
      0: system.cpu.dcache_port: received snoop pkt for addr:0x5600 WriteReq
      0: system.cpu.dcache_port: received snoop pkt for addr:0x5640 WriteReq
      0: system.cpu.dcache_port: received snoop pkt for addr:0x5680 WriteReq
      0: system.cpu.dcache_port: received snoop pkt for addr:0x56c0 WriteReq
      0: system.cpu.dcache_port: received snoop pkt for addr:0x5700 WriteReq
      0: system.cpu.dcache_port: received snoop pkt for addr:0x5740 WriteReq
      0: system.cpu.dcache_port: received snoop pkt for addr:0x5780 WriteReq
      0: system.cpu.dcache_port: received snoop pkt for addr:0x57c0 WriteReq
      0: system.cpu.dcache_port: received snoop pkt for addr:0x5800 WriteReq
      0: system.cpu.dcache_port: received snoop pkt for addr:0x5840 WriteReq
      0: system.cpu.dcache_port: received snoop pkt for addr:0x5880 WriteReq
      0: system.cpu.dcache_port: received snoop pkt for addr:0x58c0 WriteReq
      0: system.cpu.dcache_port: received snoop pkt for addr:0x5900 WriteReq
      0: system.cpu.dcache_port: received snoop pkt for addr:0x5940 WriteReq
      0: system.cpu.dcache_port: received snoop pkt for addr:0x5980 WriteReq
      0: system.cpu.dcache_port: received snoop pkt for addr:0x59c0 WriteReq
      0: system.cpu.dcache_port: received snoop pkt for addr:0x5a00 WriteReq
      0: system.cpu.dcache_port: received snoop pkt for addr:0x5a40 WriteReq
      0: system.cpu.dcache_port: received snoop pkt for addr:0x5a80 WriteReq
      0: system.cpu.dcache_port: received snoop pkt for addr:0x5ac0 WriteReq
      0: system.cpu.dcache_port: received snoop pkt for addr:0x5b00 WriteReq
      0: system.cpu.dcache_port: received snoop pkt for addr:0x5b40 WriteReq
      0: system.cpu.dcache_port: received snoop pkt for addr:0x5b80 WriteReq
      0: system.cpu.dcache_port: received snoop pkt for addr:0x5bc0 WriteReq
      0: system.cpu.dcache_port: received snoop pkt for addr:0x5c00 WriteReq
      0: system.cpu.dcache_port: received snoop pkt for addr:0x5c40 WriteReq
      0: system.cpu.dcache_port: received snoop pkt for addr:0x5c80 WriteReq
      0: system.cpu.dcache_port: received snoop pkt for addr:0x5cc0 WriteReq
      0: system.cpu.dcache_port: received snoop pkt for addr:0x5d00 WriteReq
      0: system.cpu.dcache_port: received snoop pkt for addr:0x5d40 WriteReq
      0: system.cpu.dcache_port: received snoop pkt for addr:0x5d80 WriteReq
      0: system.cpu.dcache_port: received snoop pkt for addr:0x5dc0 WriteReq
      0: system.cpu.dcache_port: received snoop pkt for addr:0x5e00 WriteReq
      0: system.cpu.dcache_port: received snoop pkt for addr:0x5e40 WriteReq
      0: system.cpu.dcache_port: received snoop pkt for addr:0x5e80 WriteReq
      0: system.cpu.dcache_port: received snoop pkt for addr:0x5ec0 WriteReq
      0: system.cpu.dcache_port: received snoop pkt for addr:0x5f00 WriteReq
      0: system.cpu.dcache_port: received snoop pkt for addr:0x5f40 WriteReq
      0: system.cpu.dcache_port: received snoop pkt for addr:0x5f80 WriteReq
      0: system.cpu.dcache_port: received snoop pkt for addr:0x5fc0 WriteReq
      0: system.cpu.dcache_port: received snoop pkt for addr:0x6000 WriteReq
      0: system.cpu.dcache_port: received snoop pkt for addr:0x6040 WriteReq
      0: system.cpu.dcache_port: received snoop pkt for addr:0x6080 WriteReq
      0: system.cpu.dcache_port: received snoop pkt for addr:0x60c0 WriteReq
      0: system.cpu.dcache_port: received snoop pkt for addr:0x6100 WriteReq
      0: system.cpu.dcache_port: received snoop pkt for addr:0x6140 WriteReq
      0: system.cpu.dcache_port: received snoop pkt for addr:0x6180 WriteReq
      0: system.cpu.dcache_port: received snoop pkt for addr:0x61c0 WriteReq
      0: system.cpu.dcache_port: received snoop pkt for addr:0x6200 WriteReq
      0: system.cpu.dcache_port: received snoop pkt for addr:0x6240 WriteReq
      0: system.cpu.dcache_port: received snoop pkt for addr:0x6280 WriteReq
      0: system.cpu.dcache_port: received snoop pkt for addr:0x62c0 WriteReq
      0: system.cpu.dcache_port: received snoop pkt for addr:0x6300 WriteReq
      0: system.cpu.dcache_port: received snoop pkt for addr:0x6340 WriteReq
      0: system.cpu.dcache_port: received snoop pkt for addr:0x6380 WriteReq
      0: system.cpu.dcache_port: received snoop pkt for addr:0x63c0 WriteReq
      0: system.cpu.dcache_port: received snoop pkt for addr:0x6400 WriteReq
      0: system.cpu.dcache_port: received snoop pkt for addr:0x6440 WriteReq
      0: system.cpu.dcache_port: received snoop pkt for addr:0x6480 WriteReq
      0: system.cpu.dcache_port: received snoop pkt for addr:0x64c0 WriteReq
      0: system.cpu.dcache_port: received snoop pkt for addr:0x6500 WriteReq
      0: system.cpu.dcache_port: received snoop pkt for addr:0x6540 WriteReq
      0: system.cpu.dcache_port: received snoop pkt for addr:0x6580 WriteReq
      0: system.cpu.dcache_port: received snoop pkt for addr:0x65c0 WriteReq
      0: system.cpu.dcache_port: received snoop pkt for addr:0x6600 WriteReq
      0: system.cpu.dcache_port: received snoop pkt for addr:0x6640 WriteReq
      0: system.cpu.dcache_port: received snoop pkt for addr:0x6680 WriteReq
      0: system.cpu.dcache_port: received snoop pkt for addr:0x66c0 WriteReq
      0: system.cpu.dcache_port: received snoop pkt for addr:0x6700 WriteReq
      0: system.cpu.dcache_port: received snoop pkt for addr:0x6740 WriteReq
      0: system.cpu.dcache_port: received snoop pkt for addr:0x6780 WriteReq
      0: system.cpu.dcache_port: received snoop pkt for addr:0x67c0 WriteReq
      0: system.cpu.dcache_port: received snoop pkt for addr:0x6800 WriteReq
      0: system.cpu.dcache_port: received snoop pkt for addr:0x6840 WriteReq
      0: system.cpu.dcache_port: received snoop pkt for addr:0x6880 WriteReq
      0: system.cpu.dcache_port: received snoop pkt for addr:0x68c0 WriteReq
      0: system.cpu.dcache_port: received snoop pkt for addr:0x6900 WriteReq
      0: system.cpu.dcache_port: received snoop pkt for addr:0x6940 WriteReq
      0: system.cpu.dcache_port: received snoop pkt for addr:0x6980 WriteReq
      0: system.cpu.dcache_port: received snoop pkt for addr:0x69c0 WriteReq
      0: system.cpu.dcache_port: received snoop pkt for addr:0x6a00 WriteReq
      0: system.cpu.dcache_port: received snoop pkt for addr:0x6a40 WriteReq
      0: system.cpu.dcache_port: received snoop pkt for addr:0x6a80 WriteReq
      0: system.cpu.dcache_port: received snoop pkt for addr:0x6ac0 WriteReq
      0: system.cpu.dcache_port: received snoop pkt for addr:0x6b00 WriteReq
      0: system.cpu.dcache_port: received snoop pkt for addr:0x6b40 WriteReq
      0: system.cpu.dcache_port: received snoop pkt for addr:0x6b80 WriteReq
      0: system.cpu.dcache_port: received snoop pkt for addr:0x6bc0 WriteReq
      0: system.cpu.dcache_port: received snoop pkt for addr:0x6c00 WriteReq
      0: system.cpu.dcache_port: received snoop pkt for addr:0x6c40 WriteReq
      0: system.cpu.dcache_port: received snoop pkt for addr:0x6c80 WriteReq
      0: system.cpu.dcache_port: received snoop pkt for addr:0x6cc0 WriteReq
      0: system.cpu.dcache_port: received snoop pkt for addr:0x6d00 WriteReq
      0: system.cpu.dcache_port: received snoop pkt for addr:0x6d40 WriteReq
      0: system.cpu.dcache_port: received snoop pkt for addr:0x6d80 WriteReq
      0: system.cpu.dcache_port: received snoop pkt for addr:0x6dc0 WriteReq
      0: system.cpu.dcache_port: received snoop pkt for addr:0x6e00 WriteReq
      0: system.cpu.dcache_port: received snoop pkt for addr:0x6e40 WriteReq
      0: system.cpu.dcache_port: received snoop pkt for addr:0x6e80 WriteReq
      0: system.cpu.dcache_port: received snoop pkt for addr:0x6ec0 WriteReq
      0: system.cpu.dcache_port: received snoop pkt for addr:0x6f00 WriteReq
      0: system.cpu.dcache_port: received snoop pkt for addr:0x6f40 WriteReq
      0: system.cpu.dcache_port: received snoop pkt for addr:0x6f80 WriteReq
      0: system.cpu.dcache_port: received snoop pkt for addr:0x6fc0 WriteReq
      0: system.cpu.dcache_port: received snoop pkt for addr:0x7000 WriteReq
      0: system.cpu.dcache_port: received snoop pkt for addr:0x7040 WriteReq
      0: system.cpu.dcache_port: received snoop pkt for addr:0x7080 WriteReq
      0: system.cpu.dcache_port: received snoop pkt for addr:0x70c0 WriteReq
      0: system.cpu.dcache_port: received snoop pkt for addr:0x7100 WriteReq
      0: system.cpu.dcache_port: received snoop pkt for addr:0x7140 WriteReq
      0: system.cpu.dcache_port: received snoop pkt for addr:0x7180 WriteReq
      0: system.cpu.dcache_port: received snoop pkt for addr:0x71c0 WriteReq
      0: system.cpu.dcache_port: received snoop pkt for addr:0x7200 WriteReq
      0: system.cpu.dcache_port: received snoop pkt for addr:0x7240 WriteReq
      0: system.cpu.dcache_port: received snoop pkt for addr:0x7280 WriteReq
      0: system.cpu.dcache_port: received snoop pkt for addr:0x72c0 WriteReq
      0: system.cpu.dcache_port: received snoop pkt for addr:0x7300 WriteReq
      0: system.cpu.dcache_port: received snoop pkt for addr:0x7340 WriteReq
      0: system.cpu.dcache_port: received snoop pkt for addr:0x7380 WriteReq
      0: system.cpu.dcache_port: received snoop pkt for addr:0x73c0 WriteReq
      0: system.cpu.dcache_port: received snoop pkt for addr:0x7400 WriteReq
      0: system.cpu.dcache_port: received snoop pkt for addr:0x7440 WriteReq
      0: system.cpu.dcache_port: received snoop pkt for addr:0x7480 WriteReq
      0: system.cpu.dcache_port: received snoop pkt for addr:0x74c0 WriteReq
      0: system.cpu.dcache_port: received snoop pkt for addr:0x7500 WriteReq
      0: system.cpu.dcache_port: received snoop pkt for addr:0x7540 WriteReq
      0: system.cpu.dcache_port: received snoop pkt for addr:0x7580 WriteReq
      0: system.cpu.dcache_port: received snoop pkt for addr:0x75c0 WriteReq
      0: system.cpu.dcache_port: received snoop pkt for addr:0x7600 WriteReq
      0: system.cpu.dcache_port: received snoop pkt for addr:0x7640 WriteReq
      0: system.cpu.dcache_port: received snoop pkt for addr:0x7680 WriteReq
      0: system.cpu.dcache_port: received snoop pkt for addr:0x76c0 WriteReq
      0: system.cpu.dcache_port: received snoop pkt for addr:0x7700 WriteReq
      0: system.cpu.dcache_port: received snoop pkt for addr:0x7740 WriteReq
      0: system.cpu.dcache_port: received snoop pkt for addr:0x7780 WriteReq
      0: system.cpu.dcache_port: received snoop pkt for addr:0x77c0 WriteReq
      0: system.cpu.dcache_port: received snoop pkt for addr:0x7800 WriteReq
      0: system.cpu.dcache_port: received snoop pkt for addr:0x7840 WriteReq
      0: system.cpu.dcache_port: received snoop pkt for addr:0x7880 WriteReq
      0: system.cpu.dcache_port: received snoop pkt for addr:0x78c0 WriteReq
      0: system.cpu.dcache_port: received snoop pkt for addr:0x7900 WriteReq
      0: system.cpu.dcache_port: received snoop pkt for addr:0x7940 WriteReq
      0: system.cpu.dcache_port: received snoop pkt for addr:0x7980 WriteReq
      0: system.cpu.dcache_port: received snoop pkt for addr:0x79c0 WriteReq
      0: system.cpu.dcache_port: received snoop pkt for addr:0x7a00 WriteReq
      0: system.cpu.dcache_port: received snoop pkt for addr:0x7a40 WriteReq
      0: system.cpu.dcache_port: received snoop pkt for addr:0x7a80 WriteReq
      0: system.cpu.dcache_port: received snoop pkt for addr:0x7ac0 WriteReq
      0: system.cpu.dcache_port: received snoop pkt for addr:0x7b00 WriteReq
      0: system.cpu.dcache_port: received snoop pkt for addr:0x7b40 WriteReq
      0: system.cpu.dcache_port: received snoop pkt for addr:0x7b80 WriteReq
      0: system.cpu.dcache_port: received snoop pkt for addr:0x7bc0 WriteReq
      0: system.cpu.dcache_port: received snoop pkt for addr:0x7c00 WriteReq
      0: system.cpu.dcache_port: received snoop pkt for addr:0x7c40 WriteReq
      0: system.cpu.dcache_port: received snoop pkt for addr:0x7c80 WriteReq
      0: system.cpu.dcache_port: received snoop pkt for addr:0x7cc0 WriteReq
      0: system.cpu.dcache_port: received snoop pkt for addr:0x7d00 WriteReq
      0: system.cpu.dcache_port: received snoop pkt for addr:0x7d40 WriteReq
      0: system.cpu.dcache_port: received snoop pkt for addr:0x7d80 WriteReq
      0: system.cpu.dcache_port: received snoop pkt for addr:0x7dc0 WriteReq
      0: system.cpu.dcache_port: received snoop pkt for addr:0x7e00 WriteReq
      0: system.cpu.dcache_port: received snoop pkt for addr:0x7e40 WriteReq
      0: system.cpu.dcache_port: received snoop pkt for addr:0x7e80 WriteReq
      0: system.cpu.dcache_port: received snoop pkt for addr:0x7ec0 WriteReq
      0: system.cpu.dcache_port: received snoop pkt for addr:0x7f00 WriteReq
      0: system.cpu.dcache_port: received snoop pkt for addr:0x7f40 WriteReq
      0: system.cpu.dcache_port: received snoop pkt for addr:0x7f80 WriteReq
      0: system.cpu.dcache_port: received snoop pkt for addr:0x7fc0 WriteReq
      0: system.cpu.dcache_port: received snoop pkt for addr:0x8000 WriteReq
      0: system.cpu.dcache_port: received snoop pkt for addr:0x8040 WriteReq
      0: system.cpu.dcache_port: received snoop pkt for addr:0x8080 WriteReq
      0: system.cpu.dcache_port: received snoop pkt for addr:0x80c0 WriteReq
      0: system.cpu.dcache_port: received snoop pkt for addr:0x8100 WriteReq
      0: system.cpu.dcache_port: received snoop pkt for addr:0x8140 WriteReq
      0: system.cpu.dcache_port: received snoop pkt for addr:0x8180 WriteReq
      0: system.cpu.dcache_port: received snoop pkt for addr:0x81c0 WriteReq
      0: system.cpu.dcache_port: received snoop pkt for addr:0x8200 WriteReq
      0: system.cpu.dcache_port: received snoop pkt for addr:0x8240 WriteReq
      0: system.cpu.dcache_port: received snoop pkt for addr:0x8280 WriteReq
      0: system.cpu.dcache_port: received snoop pkt for addr:0x82c0 WriteReq
      0: system.cpu.dcache_port: received snoop pkt for addr:0x8300 WriteReq
      0: system.cpu.dcache_port: received snoop pkt for addr:0x8340 WriteReq
      0: system.cpu.dcache_port: received snoop pkt for addr:0x8380 WriteReq
      0: system.cpu.dcache_port: received snoop pkt for addr:0x83c0 WriteReq
      0: system.cpu.dcache_port: received snoop pkt for addr:0x8400 WriteReq
      0: system.cpu.dcache_port: received snoop pkt for addr:0x8440 WriteReq
      0: system.cpu.dcache_port: received snoop pkt for addr:0x8480 WriteReq
      0: system.cpu.dcache_port: received snoop pkt for addr:0x84c0 WriteReq
      0: system.cpu.dcache_port: received snoop pkt for addr:0x8500 WriteReq
      0: system.cpu.dcache_port: received snoop pkt for addr:0x8540 WriteReq
      0: system.cpu.dcache_port: received snoop pkt for addr:0x8580 WriteReq
      0: system.cpu.dcache_port: received snoop pkt for addr:0x85c0 WriteReq
      0: system.cpu.dcache_port: received snoop pkt for addr:0x8600 WriteReq
      0: system.cpu.dcache_port: received snoop pkt for addr:0x8640 WriteReq
      0: system.cpu.dcache_port: received snoop pkt for addr:0x8680 WriteReq
      0: system.cpu.dcache_port: received snoop pkt for addr:0x86c0 WriteReq
      0: system.cpu.dcache_port: received snoop pkt for addr:0x8700 WriteReq
      0: system.cpu.dcache_port: received snoop pkt for addr:0x8740 WriteReq
      0: system.cpu.dcache_port: received snoop pkt for addr:0x8780 WriteReq
      0: system.cpu.dcache_port: received snoop pkt for addr:0x87c0 WriteReq
      0: system.cpu.dcache_port: received snoop pkt for addr:0x8800 WriteReq
      0: system.cpu.dcache_port: received snoop pkt for addr:0x8840 WriteReq
      0: system.cpu.dcache_port: received snoop pkt for addr:0x8880 WriteReq
      0: system.cpu.dcache_port: received snoop pkt for addr:0x88c0 WriteReq
      0: system.cpu.dcache_port: received snoop pkt for addr:0x8900 WriteReq
      0: system.cpu.dcache_port: received snoop pkt for addr:0x8940 WriteReq
      0: system.cpu.dcache_port: received snoop pkt for addr:0x8980 WriteReq
      0: system.cpu.dcache_port: received snoop pkt for addr:0x89c0 WriteReq
      0: system.cpu.dcache_port: received snoop pkt for addr:0x8a00 WriteReq
      0: system.cpu.dcache_port: received snoop pkt for addr:0x8a40 WriteReq
      0: system.cpu.dcache_port: received snoop pkt for addr:0x8a80 WriteReq
      0: system.cpu.dcache_port: received snoop pkt for addr:0x8ac0 WriteReq
      0: system.cpu.dcache_port: received snoop pkt for addr:0x8b00 WriteReq
      0: system.cpu.dcache_port: received snoop pkt for addr:0x8b40 WriteReq
      0: system.cpu.dcache_port: received snoop pkt for addr:0x8b80 WriteReq
      0: system.cpu.dcache_port: received snoop pkt for addr:0x8bc0 WriteReq
      0: system.cpu.dcache_port: received snoop pkt for addr:0x8c00 WriteReq
      0: system.cpu.dcache_port: received snoop pkt for addr:0x8c40 WriteReq
      0: system.cpu.dcache_port: received snoop pkt for addr:0x8c80 WriteReq
      0: system.cpu.dcache_port: received snoop pkt for addr:0x8cc0 WriteReq
      0: system.cpu.dcache_port: received snoop pkt for addr:0x8d00 WriteReq
      0: system.cpu.dcache_port: received snoop pkt for addr:0x8d40 WriteReq
      0: system.cpu.dcache_port: received snoop pkt for addr:0x8d80 WriteReq
      0: system.cpu.dcache_port: received snoop pkt for addr:0x8dc0 WriteReq
      0: system.cpu.dcache_port: received snoop pkt for addr:0x8e00 WriteReq
      0: system.cpu.dcache_port: received snoop pkt for addr:0x8e40 WriteReq
      0: system.cpu.dcache_port: received snoop pkt for addr:0x8e80 WriteReq
      0: system.cpu.dcache_port: received snoop pkt for addr:0x8ec0 WriteReq
      0: system.cpu.dcache_port: received snoop pkt for addr:0x8f00 WriteReq
      0: system.cpu.dcache_port: received snoop pkt for addr:0x8f40 WriteReq
      0: system.cpu.dcache_port: received snoop pkt for addr:0x8f80 WriteReq
      0: system.cpu.dcache_port: received snoop pkt for addr:0x8fc0 WriteReq
      0: system.cpu.dcache_port: received snoop pkt for addr:0x9000 WriteReq
      0: system.cpu.dcache_port: received snoop pkt for addr:0x9040 WriteReq
      0: system.cpu.dcache_port: received snoop pkt for addr:0x9080 WriteReq
      0: system.cpu.dcache_port: received snoop pkt for addr:0x90c0 WriteReq
      0: system.cpu.dcache_port: received snoop pkt for addr:0x9100 WriteReq
      0: system.cpu.dcache_port: received snoop pkt for addr:0x9140 WriteReq
      0: system.cpu.dcache_port: received snoop pkt for addr:0x9180 WriteReq
      0: system.cpu.dcache_port: received snoop pkt for addr:0x91c0 WriteReq
      0: system.cpu.dcache_port: received snoop pkt for addr:0x9200 WriteReq
      0: system.cpu.dcache_port: received snoop pkt for addr:0x9240 WriteReq
      0: system.cpu.dcache_port: received snoop pkt for addr:0x9280 WriteReq
      0: system.cpu.dcache_port: received snoop pkt for addr:0x92c0 WriteReq
      0: system.cpu.dcache_port: received snoop pkt for addr:0x9300 WriteReq
      0: system.cpu.dcache_port: received snoop pkt for addr:0x9340 WriteReq
      0: system.cpu.dcache_port: received snoop pkt for addr:0x9380 WriteReq
      0: system.cpu.dcache_port: received snoop pkt for addr:0x93c0 WriteReq
      0: system.cpu.dcache_port: received snoop pkt for addr:0x9400 WriteReq
      0: system.cpu.dcache_port: received snoop pkt for addr:0x9440 WriteReq
      0: system.cpu.dcache_port: received snoop pkt for addr:0x9480 WriteReq
      0: system.cpu.dcache_port: received snoop pkt for addr:0x94c0 WriteReq
      0: system.cpu.dcache_port: received snoop pkt for addr:0x9500 WriteReq
      0: system.cpu.dcache_port: received snoop pkt for addr:0x9540 WriteReq
      0: system.cpu.dcache_port: received snoop pkt for addr:0x9580 WriteReq
      0: system.cpu.dcache_port: received snoop pkt for addr:0x95c0 WriteReq
      0: system.cpu.dcache_port: received snoop pkt for addr:0x9600 WriteReq
      0: system.cpu.dcache_port: received snoop pkt for addr:0x9640 WriteReq
      0: system.cpu.dcache_port: received snoop pkt for addr:0x9680 WriteReq
      0: system.cpu.dcache_port: received snoop pkt for addr:0x96c0 WriteReq
      0: system.cpu.dcache_port: received snoop pkt for addr:0x9700 WriteReq
      0: system.cpu.dcache_port: received snoop pkt for addr:0x9740 WriteReq
      0: system.cpu.dcache_port: received snoop pkt for addr:0x9780 WriteReq
      0: system.cpu.dcache_port: received snoop pkt for addr:0x97c0 WriteReq
      0: system.cpu.dcache_port: received snoop pkt for addr:0x9800 WriteReq
      0: system.cpu.dcache_port: received snoop pkt for addr:0x9840 WriteReq
      0: system.cpu.dcache_port: received snoop pkt for addr:0x9880 WriteReq
      0: system.cpu.dcache_port: received snoop pkt for addr:0x98c0 WriteReq
      0: system.cpu.dcache_port: received snoop pkt for addr:0x9900 WriteReq
      0: system.cpu.dcache_port: received snoop pkt for addr:0x9940 WriteReq
      0: system.cpu.dcache_port: received snoop pkt for addr:0x9980 WriteReq
      0: system.cpu.dcache_port: received snoop pkt for addr:0x99c0 WriteReq
      0: system.cpu.dcache_port: received snoop pkt for addr:0x9a00 WriteReq
      0: system.cpu.dcache_port: received snoop pkt for addr:0x9a40 WriteReq
      0: system.cpu.dcache_port: received snoop pkt for addr:0x9a80 WriteReq
      0: system.cpu.dcache_port: received snoop pkt for addr:0x9ac0 WriteReq
      0: system.cpu.dcache_port: received snoop pkt for addr:0x9b00 WriteReq
      0: system.cpu.dcache_port: received snoop pkt for addr:0x9b40 WriteReq
      0: system.cpu.dcache_port: received snoop pkt for addr:0x9b80 WriteReq
      0: system.cpu.dcache_port: received snoop pkt for addr:0x9bc0 WriteReq
      0: system.cpu.dcache_port: received snoop pkt for addr:0x9c00 WriteReq
      0: system.cpu.dcache_port: received snoop pkt for addr:0x9c40 WriteReq
      0: system.cpu.dcache_port: received snoop pkt for addr:0x9c80 WriteReq
      0: system.cpu.dcache_port: received snoop pkt for addr:0x9cc0 WriteReq
      0: system.cpu.dcache_port: received snoop pkt for addr:0x9d00 WriteReq
      0: system.cpu.dcache_port: received snoop pkt for addr:0x9d40 WriteReq
      0: system.cpu.dcache_port: received snoop pkt for addr:0x9d80 WriteReq
      0: system.cpu.dcache_port: received snoop pkt for addr:0x9dc0 WriteReq
      0: system.cpu.dcache_port: received snoop pkt for addr:0x9e00 WriteReq
      0: system.cpu.dcache_port: received snoop pkt for addr:0x9e40 WriteReq
      0: system.cpu.dcache_port: received snoop pkt for addr:0x9e80 WriteReq
      0: system.cpu.dcache_port: received snoop pkt for addr:0x9ec0 WriteReq
      0: system.cpu.dcache_port: received snoop pkt for addr:0x9f00 WriteReq
      0: system.cpu.dcache_port: received snoop pkt for addr:0x9f40 WriteReq
      0: system.cpu.dcache_port: received snoop pkt for addr:0x9f80 WriteReq
      0: system.cpu.dcache_port: received snoop pkt for addr:0x9fc0 WriteReq
      0: system.cpu.dcache_port: received snoop pkt for addr:0xa000 WriteReq
      0: system.cpu.dcache_port: received snoop pkt for addr:0xa040 WriteReq
      0: system.cpu.dcache_port: received snoop pkt for addr:0xa080 WriteReq
      0: system.cpu.dcache_port: received snoop pkt for addr:0xa0c0 WriteReq
      0: system.cpu.dcache_port: received snoop pkt for addr:0xa100 WriteReq
      0: system.cpu.dcache_port: received snoop pkt for addr:0xa140 WriteReq
      0: system.cpu.dcache_port: received snoop pkt for addr:0xa180 WriteReq
      0: system.cpu.dcache_port: received snoop pkt for addr:0xa1c0 WriteReq
      0: system.cpu.dcache_port: received snoop pkt for addr:0xa200 WriteReq
      0: system.cpu.dcache_port: received snoop pkt for addr:0xa240 WriteReq
      0: system.cpu.dcache_port: received snoop pkt for addr:0xa280 WriteReq
      0: system.cpu.dcache_port: received snoop pkt for addr:0xa2c0 WriteReq
      0: system.cpu.dcache_port: received snoop pkt for addr:0xa300 WriteReq
      0: system.cpu.dcache_port: received snoop pkt for addr:0xa340 WriteReq
      0: system.cpu.dcache_port: received snoop pkt for addr:0xa380 WriteReq
      0: system.cpu.dcache_port: received snoop pkt for addr:0xa3c0 WriteReq
      0: system.cpu.dcache_port: received snoop pkt for addr:0xa400 WriteReq
      0: system.cpu.dcache_port: received snoop pkt for addr:0xa440 WriteReq
      0: system.cpu.dcache_port: received snoop pkt for addr:0xa480 WriteReq
      0: system.cpu.dcache_port: received snoop pkt for addr:0xa4c0 WriteReq
      0: system.cpu.dcache_port: received snoop pkt for addr:0xa500 WriteReq
      0: system.cpu.dcache_port: received snoop pkt for addr:0xa540 WriteReq
      0: system.cpu.dcache_port: received snoop pkt for addr:0xa580 WriteReq
      0: system.cpu.dcache_port: received snoop pkt for addr:0xa5c0 WriteReq
      0: system.cpu.dcache_port: received snoop pkt for addr:0xa600 WriteReq
      0: system.cpu.dcache_port: received snoop pkt for addr:0xa640 WriteReq
      0: system.cpu.dcache_port: received snoop pkt for addr:0xa680 WriteReq
      0: system.cpu.dcache_port: received snoop pkt for addr:0xa6c0 WriteReq
      0: system.cpu.dcache_port: received snoop pkt for addr:0xa700 WriteReq
      0: system.cpu.dcache_port: received snoop pkt for addr:0xa740 WriteReq
      0: system.cpu.dcache_port: received snoop pkt for addr:0xa780 WriteReq
      0: system.cpu.dcache_port: received snoop pkt for addr:0xa7c0 WriteReq
      0: system.cpu.dcache_port: received snoop pkt for addr:0xa800 WriteReq
      0: system.cpu.dcache_port: received snoop pkt for addr:0xa840 WriteReq
      0: system.cpu.dcache_port: received snoop pkt for addr:0xa880 WriteReq
      0: system.cpu.dcache_port: received snoop pkt for addr:0xa8c0 WriteReq
      0: system.cpu.dcache_port: received snoop pkt for addr:0xa900 WriteReq
      0: system.cpu.dcache_port: received snoop pkt for addr:0xa940 WriteReq
      0: system.cpu.dcache_port: received snoop pkt for addr:0xa980 WriteReq
      0: system.cpu.dcache_port: received snoop pkt for addr:0xa9c0 WriteReq
      0: system.cpu.dcache_port: received snoop pkt for addr:0xaa00 WriteReq
      0: system.cpu.dcache_port: received snoop pkt for addr:0xaa40 WriteReq
      0: system.cpu.dcache_port: received snoop pkt for addr:0xaa80 WriteReq
      0: system.cpu.dcache_port: received snoop pkt for addr:0xaac0 WriteReq
      0: system.cpu.dcache_port: received snoop pkt for addr:0xab00 WriteReq
      0: system.cpu.dcache_port: received snoop pkt for addr:0xab40 WriteReq
      0: system.cpu.dcache_port: received snoop pkt for addr:0xab80 WriteReq
      0: system.cpu.dcache_port: received snoop pkt for addr:0xabc0 WriteReq
      0: system.cpu.dcache_port: received snoop pkt for addr:0xac00 WriteReq
      0: system.cpu.dcache_port: received snoop pkt for addr:0xac40 WriteReq
      0: system.cpu.dcache_port: received snoop pkt for addr:0xac80 WriteReq
      0: system.cpu.dcache_port: received snoop pkt for addr:0xacc0 WriteReq
      0: system.cpu.dcache_port: received snoop pkt for addr:0xad00 WriteReq
      0: system.cpu.dcache_port: received snoop pkt for addr:0xad40 WriteReq
      0: system.cpu.dcache_port: received snoop pkt for addr:0xad80 WriteReq
      0: system.cpu.dcache_port: received snoop pkt for addr:0xadc0 WriteReq
      0: system.cpu.dcache_port: received snoop pkt for addr:0xae00 WriteReq
      0: system.cpu.dcache_port: received snoop pkt for addr:0xae40 WriteReq
      0: system.cpu.dcache_port: received snoop pkt for addr:0xae80 WriteReq
      0: system.cpu.dcache_port: received snoop pkt for addr:0xaec0 WriteReq
      0: system.cpu.dcache_port: received snoop pkt for addr:0xaf00 WriteReq
      0: system.cpu.dcache_port: received snoop pkt for addr:0xaf40 WriteReq
      0: system.cpu.dcache_port: received snoop pkt for addr:0xaf80 WriteReq
      0: system.cpu.dcache_port: received snoop pkt for addr:0xafc0 WriteReq
      0: system.cpu.dcache_port: received snoop pkt for addr:0xb000 WriteReq
      0: system.cpu.dcache_port: received snoop pkt for addr:0xb040 WriteReq
      0: system.cpu.dcache_port: received snoop pkt for addr:0xb080 WriteReq
      0: system.cpu.dcache_port: received snoop pkt for addr:0xb0c0 WriteReq
      0: system.cpu.dcache_port: received snoop pkt for addr:0xb100 WriteReq
      0: system.cpu.dcache_port: received snoop pkt for addr:0xb140 WriteReq
      0: system.cpu.dcache_port: received snoop pkt for addr:0xb180 WriteReq
      0: system.cpu.dcache_port: received snoop pkt for addr:0xb1c0 WriteReq
      0: system.cpu.dcache_port: received snoop pkt for addr:0xb200 WriteReq
      0: system.cpu.dcache_port: received snoop pkt for addr:0xb240 WriteReq
      0: system.cpu.dcache_port: received snoop pkt for addr:0xb280 WriteReq
      0: system.cpu.dcache_port: received snoop pkt for addr:0xb2c0 WriteReq
      0: system.cpu.dcache_port: received snoop pkt for addr:0xb300 WriteReq
      0: system.cpu.dcache_port: received snoop pkt for addr:0xb340 WriteReq
      0: system.cpu.dcache_port: received snoop pkt for addr:0xb380 WriteReq
      0: system.cpu.dcache_port: received snoop pkt for addr:0xb3c0 WriteReq
      0: system.cpu.dcache_port: received snoop pkt for addr:0xb400 WriteReq
      0: system.cpu.dcache_port: received snoop pkt for addr:0xb440 WriteReq
      0: system.cpu.dcache_port: received snoop pkt for addr:0xb480 WriteReq
      0: system.cpu.dcache_port: received snoop pkt for addr:0xb4c0 WriteReq
      0: system.cpu.dcache_port: received snoop pkt for addr:0xb500 WriteReq
      0: system.cpu.dcache_port: received snoop pkt for addr:0xb540 WriteReq
      0: system.cpu.dcache_port: received snoop pkt for addr:0xb580 WriteReq
      0: system.cpu.dcache_port: received snoop pkt for addr:0xb5c0 WriteReq
      0: system.cpu.dcache_port: received snoop pkt for addr:0xb600 WriteReq
      0: system.cpu.dcache_port: received snoop pkt for addr:0xb640 WriteReq
      0: system.cpu.dcache_port: received snoop pkt for addr:0xb680 WriteReq
      0: system.cpu.dcache_port: received snoop pkt for addr:0xb6c0 WriteReq
      0: system.cpu.dcache_port: received snoop pkt for addr:0xb700 WriteReq
      0: system.cpu.dcache_port: received snoop pkt for addr:0xb740 WriteReq
      0: system.cpu.dcache_port: received snoop pkt for addr:0xb780 WriteReq
      0: system.cpu.dcache_port: received snoop pkt for addr:0xb7c0 WriteReq
      0: system.cpu.dcache_port: received snoop pkt for addr:0xb800 WriteReq
      0: system.cpu.dcache_port: received snoop pkt for addr:0xb840 WriteReq
      0: system.cpu.dcache_port: received snoop pkt for addr:0xb880 WriteReq
      0: system.cpu.dcache_port: received snoop pkt for addr:0xb8c0 WriteReq
      0: system.cpu.dcache_port: received snoop pkt for addr:0xb900 WriteReq
      0: system.cpu.dcache_port: received snoop pkt for addr:0xb940 WriteReq
      0: system.cpu.dcache_port: received snoop pkt for addr:0xb980 WriteReq
      0: system.cpu.dcache_port: received snoop pkt for addr:0xb9c0 WriteReq
      0: system.cpu.dcache_port: received snoop pkt for addr:0xba00 WriteReq
      0: system.cpu.dcache_port: received snoop pkt for addr:0xba40 WriteReq
      0: system.cpu.dcache_port: received snoop pkt for addr:0xba80 WriteReq
      0: system.cpu.dcache_port: received snoop pkt for addr:0xbac0 WriteReq
      0: system.cpu.dcache_port: received snoop pkt for addr:0xbb00 WriteReq
      0: system.cpu.dcache_port: received snoop pkt for addr:0xbb40 WriteReq
      0: system.cpu.dcache_port: received snoop pkt for addr:0xbb80 WriteReq
      0: system.cpu.dcache_port: received snoop pkt for addr:0xbbc0 WriteReq
      0: system.cpu.dcache_port: received snoop pkt for addr:0xbc00 WriteReq
      0: system.cpu.dcache_port: received snoop pkt for addr:0xbc40 WriteReq
      0: system.cpu.dcache_port: received snoop pkt for addr:0xbc80 WriteReq
      0: system.cpu.dcache_port: received snoop pkt for addr:0xbcc0 WriteReq
      0: system.cpu.dcache_port: received snoop pkt for addr:0xbd00 WriteReq
      0: system.cpu.dcache_port: received snoop pkt for addr:0xbd40 WriteReq
      0: system.cpu.dcache_port: received snoop pkt for addr:0xbd80 WriteReq
      0: system.cpu.dcache_port: received snoop pkt for addr:0xbdc0 WriteReq
      0: system.cpu.dcache_port: received snoop pkt for addr:0xbe00 WriteReq
      0: system.cpu.dcache_port: received snoop pkt for addr:0xbe40 WriteReq
      0: system.cpu.dcache_port: received snoop pkt for addr:0xbe80 WriteReq
      0: system.cpu.dcache_port: received snoop pkt for addr:0xbec0 WriteReq
      0: system.cpu.dcache_port: received snoop pkt for addr:0xbf00 WriteReq
      0: system.cpu.dcache_port: received snoop pkt for addr:0xbf40 WriteReq
      0: system.cpu.dcache_port: received snoop pkt for addr:0xbf80 WriteReq
      0: system.cpu.dcache_port: received snoop pkt for addr:0xbfc0 WriteReq
      0: system.cpu.dcache_port: received snoop pkt for addr:0xc000 WriteReq
      0: system.cpu.dcache_port: received snoop pkt for addr:0xc040 WriteReq
      0: system.cpu.dcache_port: received snoop pkt for addr:0xc080 WriteReq
      0: system.cpu.dcache_port: received snoop pkt for addr:0xc0c0 WriteReq
      0: system.cpu.dcache_port: received snoop pkt for addr:0xc100 WriteReq
      0: system.cpu.dcache_port: received snoop pkt for addr:0xc140 WriteReq
      0: system.cpu.dcache_port: received snoop pkt for addr:0xc180 WriteReq
      0: system.cpu.dcache_port: received snoop pkt for addr:0xc1c0 WriteReq
      0: system.cpu.dcache_port: received snoop pkt for addr:0xc200 WriteReq
      0: system.cpu.dcache_port: received snoop pkt for addr:0xc240 WriteReq
      0: system.cpu.dcache_port: received snoop pkt for addr:0xc280 WriteReq
      0: system.cpu.dcache_port: received snoop pkt for addr:0xc2c0 WriteReq
      0: system.cpu.dcache_port: received snoop pkt for addr:0xc300 WriteReq
      0: system.cpu.dcache_port: received snoop pkt for addr:0xc340 WriteReq
      0: system.cpu.dcache_port: received snoop pkt for addr:0xc380 WriteReq
      0: system.cpu.dcache_port: received snoop pkt for addr:0xc3c0 WriteReq
      0: system.cpu.dcache_port: received snoop pkt for addr:0xc400 WriteReq
      0: system.cpu.dcache_port: received snoop pkt for addr:0xc440 WriteReq
      0: system.cpu.dcache_port: received snoop pkt for addr:0xc480 WriteReq
      0: system.cpu.dcache_port: received snoop pkt for addr:0xc4c0 WriteReq
      0: system.cpu.dcache_port: received snoop pkt for addr:0xc500 WriteReq
      0: system.cpu.dcache_port: received snoop pkt for addr:0xc540 WriteReq
      0: system.cpu.dcache_port: received snoop pkt for addr:0xc580 WriteReq
      0: system.cpu.dcache_port: received snoop pkt for addr:0xc5c0 WriteReq
      0: system.cpu.dcache_port: received snoop pkt for addr:0xc600 WriteReq
      0: system.cpu.dcache_port: received snoop pkt for addr:0xc640 WriteReq
      0: system.cpu.dcache_port: received snoop pkt for addr:0xc680 WriteReq
      0: system.cpu.dcache_port: received snoop pkt for addr:0xc6c0 WriteReq
      0: system.cpu.dcache_port: received snoop pkt for addr:0xc700 WriteReq
      0: system.cpu.dcache_port: received snoop pkt for addr:0xc740 WriteReq
      0: system.cpu.dcache_port: received snoop pkt for addr:0xc780 WriteReq
      0: system.cpu.dcache_port: received snoop pkt for addr:0xc7c0 WriteReq
      0: system.cpu.dcache_port: received snoop pkt for addr:0xc800 WriteReq
      0: system.cpu.dcache_port: received snoop pkt for addr:0xc840 WriteReq
      0: system.cpu.dcache_port: received snoop pkt for addr:0xc880 WriteReq
      0: system.cpu.dcache_port: received snoop pkt for addr:0xc8c0 WriteReq
      0: system.cpu.dcache_port: received snoop pkt for addr:0xc900 WriteReq
      0: system.cpu.dcache_port: received snoop pkt for addr:0xc940 WriteReq
      0: system.cpu.dcache_port: received snoop pkt for addr:0xc980 WriteReq
      0: system.cpu.dcache_port: received snoop pkt for addr:0xc9c0 WriteReq
      0: system.cpu.dcache_port: received snoop pkt for addr:0xca00 WriteReq
      0: system.cpu.dcache_port: received snoop pkt for addr:0xca40 WriteReq
      0: system.cpu.dcache_port: received snoop pkt for addr:0xca80 WriteReq
      0: system.cpu.dcache_port: received snoop pkt for addr:0xcac0 WriteReq
      0: system.cpu.dcache_port: received snoop pkt for addr:0xcb00 WriteReq
      0: system.cpu.dcache_port: received snoop pkt for addr:0xcb40 WriteReq
      0: system.cpu.dcache_port: received snoop pkt for addr:0xcb80 WriteReq
      0: system.cpu.dcache_port: received snoop pkt for addr:0xcbc0 WriteReq
      0: system.cpu.dcache_port: received snoop pkt for addr:0xcc00 WriteReq
      0: system.cpu.dcache_port: received snoop pkt for addr:0xcc40 WriteReq
      0: system.cpu.dcache_port: received snoop pkt for addr:0xcc80 WriteReq
      0: system.cpu.dcache_port: received snoop pkt for addr:0xccc0 WriteReq
      0: system.cpu.dcache_port: received snoop pkt for addr:0xcd00 WriteReq
      0: system.cpu.dcache_port: received snoop pkt for addr:0xcd40 WriteReq
      0: system.cpu.dcache_port: received snoop pkt for addr:0xcd80 WriteReq
      0: system.cpu.dcache_port: received snoop pkt for addr:0xcdc0 WriteReq
      0: system.cpu.dcache_port: received snoop pkt for addr:0xce00 WriteReq
      0: system.cpu.dcache_port: received snoop pkt for addr:0xce40 WriteReq
      0: system.cpu.dcache_port: received snoop pkt for addr:0xce80 WriteReq
      0: system.cpu.dcache_port: received snoop pkt for addr:0xcec0 WriteReq
      0: system.cpu.dcache_port: received snoop pkt for addr:0xcf00 WriteReq
      0: system.cpu.dcache_port: received snoop pkt for addr:0xcf40 WriteReq
      0: system.cpu.dcache_port: received snoop pkt for addr:0xcf80 WriteReq
      0: system.cpu.dcache_port: received snoop pkt for addr:0xcfc0 WriteReq
      0: system.cpu.dcache_port: received snoop pkt for addr:0xd000 WriteReq
      0: system.cpu.dcache_port: received snoop pkt for addr:0xd040 WriteReq
      0: system.cpu.dcache_port: received snoop pkt for addr:0xd080 WriteReq
      0: system.cpu.dcache_port: received snoop pkt for addr:0xd0c0 WriteReq
      0: system.cpu.dcache_port: received snoop pkt for addr:0xd100 WriteReq
      0: system.cpu.dcache_port: received snoop pkt for addr:0xd140 WriteReq
      0: system.cpu.dcache_port: received snoop pkt for addr:0xd180 WriteReq
      0: system.cpu.dcache_port: received snoop pkt for addr:0xd1c0 WriteReq
      0: system.cpu.dcache_port: received snoop pkt for addr:0xd200 WriteReq
      0: system.cpu.dcache_port: received snoop pkt for addr:0xd240 WriteReq
      0: system.cpu.dcache_port: received snoop pkt for addr:0xd280 WriteReq
      0: system.cpu.dcache_port: received snoop pkt for addr:0xd2c0 WriteReq
      0: system.cpu.dcache_port: received snoop pkt for addr:0xd300 WriteReq
      0: system.cpu.dcache_port: received snoop pkt for addr:0xd340 WriteReq
      0: system.cpu.dcache_port: received snoop pkt for addr:0xd380 WriteReq
      0: system.cpu.dcache_port: received snoop pkt for addr:0xd3c0 WriteReq
      0: system.cpu.dcache_port: received snoop pkt for addr:0xd400 WriteReq
      0: system.cpu.dcache_port: received snoop pkt for addr:0xd440 WriteReq
      0: system.cpu.dcache_port: received snoop pkt for addr:0xd480 WriteReq
      0: system.cpu.dcache_port: received snoop pkt for addr:0xd4c0 WriteReq
      0: system.cpu.dcache_port: received snoop pkt for addr:0xd500 WriteReq
      0: system.cpu.dcache_port: received snoop pkt for addr:0xd540 WriteReq
      0: system.cpu.dcache_port: received snoop pkt for addr:0xd580 WriteReq
      0: system.cpu.dcache_port: received snoop pkt for addr:0xd5c0 WriteReq
      0: system.cpu.dcache_port: received snoop pkt for addr:0xd600 WriteReq
      0: system.cpu.dcache_port: received snoop pkt for addr:0xd640 WriteReq
      0: system.cpu.dcache_port: received snoop pkt for addr:0xd680 WriteReq
      0: system.cpu.dcache_port: received snoop pkt for addr:0xd6c0 WriteReq
      0: system.cpu.dcache_port: received snoop pkt for addr:0xd700 WriteReq
      0: system.cpu.dcache_port: received snoop pkt for addr:0xd740 WriteReq
      0: system.cpu.dcache_port: received snoop pkt for addr:0xd780 WriteReq
      0: system.cpu.dcache_port: received snoop pkt for addr:0xd7c0 WriteReq
      0: system.cpu.dcache_port: received snoop pkt for addr:0xd800 WriteReq
      0: system.cpu.dcache_port: received snoop pkt for addr:0xd840 WriteReq
      0: system.cpu.dcache_port: received snoop pkt for addr:0xd880 WriteReq
      0: system.cpu.dcache_port: received snoop pkt for addr:0xd8c0 WriteReq
      0: system.cpu.dcache_port: received snoop pkt for addr:0xd900 WriteReq
      0: system.cpu.dcache_port: received snoop pkt for addr:0xd940 WriteReq
      0: system.cpu.dcache_port: received snoop pkt for addr:0xd980 WriteReq
      0: system.cpu.dcache_port: received snoop pkt for addr:0xd9c0 WriteReq
      0: system.cpu.dcache_port: received snoop pkt for addr:0xda00 WriteReq
      0: system.cpu.dcache_port: received snoop pkt for addr:0xda40 WriteReq
      0: system.cpu.dcache_port: received snoop pkt for addr:0xda80 WriteReq
      0: system.cpu.dcache_port: received snoop pkt for addr:0xdac0 WriteReq
      0: system.cpu.dcache_port: received snoop pkt for addr:0xdb00 WriteReq
      0: system.cpu.dcache_port: received snoop pkt for addr:0xdb40 WriteReq
      0: system.cpu.dcache_port: received snoop pkt for addr:0xdb80 WriteReq
      0: system.cpu.dcache_port: received snoop pkt for addr:0xdbc0 WriteReq
      0: system.cpu.dcache_port: received snoop pkt for addr:0xdc00 WriteReq
      0: system.cpu.dcache_port: received snoop pkt for addr:0xdc40 WriteReq
      0: system.cpu.dcache_port: received snoop pkt for addr:0xdc80 WriteReq
      0: system.cpu.dcache_port: received snoop pkt for addr:0xdcc0 WriteReq
      0: system.cpu.dcache_port: received snoop pkt for addr:0xdd00 WriteReq
      0: system.cpu.dcache_port: received snoop pkt for addr:0xdd40 WriteReq
      0: system.cpu.dcache_port: received snoop pkt for addr:0xdd80 WriteReq
      0: system.cpu.dcache_port: received snoop pkt for addr:0xddc0 WriteReq
      0: system.cpu.dcache_port: received snoop pkt for addr:0xde00 WriteReq
      0: system.cpu.dcache_port: received snoop pkt for addr:0xde40 WriteReq
      0: system.cpu.dcache_port: received snoop pkt for addr:0xde80 WriteReq
      0: system.cpu.dcache_port: received snoop pkt for addr:0xdec0 WriteReq
      0: system.cpu.dcache_port: received snoop pkt for addr:0xdf00 WriteReq
      0: system.cpu.dcache_port: received snoop pkt for addr:0xdf40 WriteReq
      0: system.cpu.dcache_port: received snoop pkt for addr:0xdf80 WriteReq
      0: system.cpu.dcache_port: received snoop pkt for addr:0xdfc0 WriteReq
      0: system.cpu.dcache_port: received snoop pkt for addr:0xe000 WriteReq
      0: system.cpu.dcache_port: received snoop pkt for addr:0xe040 WriteReq
      0: system.cpu.dcache_port: received snoop pkt for addr:0xe080 WriteReq
      0: system.cpu.dcache_port: received snoop pkt for addr:0xe0c0 WriteReq
      0: system.cpu.dcache_port: received snoop pkt for addr:0xe100 WriteReq
      0: system.cpu.dcache_port: received snoop pkt for addr:0xe140 WriteReq
      0: system.cpu.dcache_port: received snoop pkt for addr:0xe180 WriteReq
      0: system.cpu.dcache_port: received snoop pkt for addr:0xe1c0 WriteReq
      0: system.cpu.dcache_port: received snoop pkt for addr:0xe200 WriteReq
      0: system.cpu.dcache_port: received snoop pkt for addr:0xe240 WriteReq
      0: system.cpu.dcache_port: received snoop pkt for addr:0xe280 WriteReq
      0: system.cpu.dcache_port: received snoop pkt for addr:0xe2c0 WriteReq
      0: system.cpu.dcache_port: received snoop pkt for addr:0xe300 WriteReq
      0: system.cpu.dcache_port: received snoop pkt for addr:0xe340 WriteReq
      0: system.cpu.dcache_port: received snoop pkt for addr:0xe380 WriteReq
      0: system.cpu.dcache_port: received snoop pkt for addr:0xe3c0 WriteReq
      0: system.cpu.dcache_port: received snoop pkt for addr:0xe400 WriteReq
      0: system.cpu.dcache_port: received snoop pkt for addr:0xe440 WriteReq
      0: system.cpu.dcache_port: received snoop pkt for addr:0xe480 WriteReq
      0: system.cpu.dcache_port: received snoop pkt for addr:0xe4c0 WriteReq
      0: system.cpu.dcache_port: received snoop pkt for addr:0xe500 WriteReq
      0: system.cpu.dcache_port: received snoop pkt for addr:0xe540 WriteReq
      0: system.cpu.dcache_port: received snoop pkt for addr:0xe580 WriteReq
      0: system.cpu.dcache_port: received snoop pkt for addr:0xe5c0 WriteReq
      0: system.cpu.dcache_port: received snoop pkt for addr:0xe600 WriteReq
      0: system.cpu.dcache_port: received snoop pkt for addr:0xe640 WriteReq
      0: system.cpu.dcache_port: received snoop pkt for addr:0xe680 WriteReq
      0: system.cpu.dcache_port: received snoop pkt for addr:0xe6c0 WriteReq
      0: system.cpu.dcache_port: received snoop pkt for addr:0xe700 WriteReq
      0: system.cpu.dcache_port: received snoop pkt for addr:0xe740 WriteReq
      0: system.cpu.dcache_port: received snoop pkt for addr:0xe780 WriteReq
      0: system.cpu.dcache_port: received snoop pkt for addr:0xe7c0 WriteReq
      0: system.cpu.dcache_port: received snoop pkt for addr:0xe800 WriteReq
      0: system.cpu.dcache_port: received snoop pkt for addr:0xe840 WriteReq
      0: system.cpu.dcache_port: received snoop pkt for addr:0xe880 WriteReq
      0: system.cpu.dcache_port: received snoop pkt for addr:0xe8c0 WriteReq
      0: system.cpu.dcache_port: received snoop pkt for addr:0xe900 WriteReq
      0: system.cpu.dcache_port: received snoop pkt for addr:0xe940 WriteReq
      0: system.cpu.dcache_port: received snoop pkt for addr:0xe980 WriteReq
      0: system.cpu.dcache_port: received snoop pkt for addr:0xe9c0 WriteReq
      0: system.cpu.dcache_port: received snoop pkt for addr:0xea00 WriteReq
      0: system.cpu.dcache_port: received snoop pkt for addr:0xea40 WriteReq
      0: system.cpu.dcache_port: received snoop pkt for addr:0xea80 WriteReq
      0: system.cpu.dcache_port: received snoop pkt for addr:0xeac0 WriteReq
      0: system.cpu.dcache_port: received snoop pkt for addr:0xeb00 WriteReq
      0: system.cpu.dcache_port: received snoop pkt for addr:0xeb40 WriteReq
      0: system.cpu.dcache_port: received snoop pkt for addr:0xeb80 WriteReq
      0: system.cpu.dcache_port: received snoop pkt for addr:0xebc0 WriteReq
      0: system.cpu.dcache_port: received snoop pkt for addr:0xec00 WriteReq
      0: system.cpu.dcache_port: received snoop pkt for addr:0xec40 WriteReq
      0: system.cpu.dcache_port: received snoop pkt for addr:0xec80 WriteReq
      0: system.cpu.dcache_port: received snoop pkt for addr:0xecc0 WriteReq
      0: system.cpu.dcache_port: received snoop pkt for addr:0xed00 WriteReq
      0: system.cpu.dcache_port: received snoop pkt for addr:0xed40 WriteReq
      0: system.cpu.dcache_port: received snoop pkt for addr:0xed80 WriteReq
      0: system.cpu.dcache_port: received snoop pkt for addr:0xedc0 WriteReq
      0: system.cpu.dcache_port: received snoop pkt for addr:0xee00 WriteReq
      0: system.cpu.dcache_port: received snoop pkt for addr:0xee40 WriteReq
      0: system.cpu.dcache_port: received snoop pkt for addr:0xee80 WriteReq
      0: system.cpu.dcache_port: received snoop pkt for addr:0xeec0 WriteReq
      0: system.cpu.dcache_port: received snoop pkt for addr:0xef00 WriteReq
      0: system.cpu.dcache_port: received snoop pkt for addr:0xef40 WriteReq
      0: system.cpu.dcache_port: received snoop pkt for addr:0xef80 WriteReq
      0: system.cpu.dcache_port: received snoop pkt for addr:0xefc0 WriteReq
      0: system.cpu.dcache_port: received snoop pkt for addr:0xf000 WriteReq
      0: system.cpu.dcache_port: received snoop pkt for addr:0xf040 WriteReq
      0: system.cpu.dcache_port: received snoop pkt for addr:0xf080 WriteReq
      0: system.cpu.dcache_port: received snoop pkt for addr:0xf0c0 WriteReq
      0: system.cpu.dcache_port: received snoop pkt for addr:0xf100 WriteReq
      0: system.cpu.dcache_port: received snoop pkt for addr:0xf140 WriteReq
      0: system.cpu.dcache_port: received snoop pkt for addr:0xf180 WriteReq
      0: system.cpu.dcache_port: received snoop pkt for addr:0xf1c0 WriteReq
      0: system.cpu.dcache_port: received snoop pkt for addr:0xf200 WriteReq
      0: system.cpu.dcache_port: received snoop pkt for addr:0xf240 WriteReq
      0: system.cpu.dcache_port: received snoop pkt for addr:0xf280 WriteReq
      0: system.cpu.dcache_port: received snoop pkt for addr:0xf2c0 WriteReq
      0: system.cpu.dcache_port: received snoop pkt for addr:0xf300 WriteReq
      0: system.cpu.dcache_port: received snoop pkt for addr:0xf340 WriteReq
      0: system.cpu.dcache_port: received snoop pkt for addr:0xf380 WriteReq
      0: system.cpu.dcache_port: received snoop pkt for addr:0xf3c0 WriteReq
      0: system.cpu.dcache_port: received snoop pkt for addr:0xf400 WriteReq
      0: system.cpu.dcache_port: received snoop pkt for addr:0xf440 WriteReq
      0: system.cpu.dcache_port: received snoop pkt for addr:0xf480 WriteReq
      0: system.cpu.dcache_port: received snoop pkt for addr:0xf4c0 WriteReq
      0: system.cpu.dcache_port: received snoop pkt for addr:0xf500 WriteReq
      0: system.cpu.dcache_port: received snoop pkt for addr:0xf540 WriteReq
      0: system.cpu.dcache_port: received snoop pkt for addr:0xf580 WriteReq
      0: system.cpu.dcache_port: received snoop pkt for addr:0xf5c0 WriteReq
      0: system.cpu.dcache_port: received snoop pkt for addr:0xf600 WriteReq
      0: system.cpu.dcache_port: received snoop pkt for addr:0xf640 WriteReq
      0: system.cpu.dcache_port: received snoop pkt for addr:0xf680 WriteReq
      0: system.cpu.dcache_port: received snoop pkt for addr:0xf6c0 WriteReq
      0: system.cpu.dcache_port: received snoop pkt for addr:0xf700 WriteReq
      0: system.cpu.dcache_port: received snoop pkt for addr:0xf740 WriteReq
      0: system.cpu.dcache_port: received snoop pkt for addr:0xf780 WriteReq
      0: system.cpu.dcache_port: received snoop pkt for addr:0xf7c0 WriteReq
      0: system.cpu.dcache_port: received snoop pkt for addr:0xf800 WriteReq
      0: system.cpu.dcache_port: received snoop pkt for addr:0xf840 WriteReq
      0: system.cpu.dcache_port: received snoop pkt for addr:0xf880 WriteReq
      0: system.cpu.dcache_port: received snoop pkt for addr:0xf8c0 WriteReq
      0: system.cpu.dcache_port: received snoop pkt for addr:0xf900 WriteReq
      0: system.cpu.dcache_port: received snoop pkt for addr:0xf940 WriteReq
      0: system.cpu.dcache_port: received snoop pkt for addr:0xf980 WriteReq
      0: system.cpu.dcache_port: received snoop pkt for addr:0xf9c0 WriteReq
      0: system.cpu.dcache_port: received snoop pkt for addr:0xfa00 WriteReq
      0: system.cpu.dcache_port: received snoop pkt for addr:0xfa40 WriteReq
      0: system.cpu.dcache_port: received snoop pkt for addr:0xfa80 WriteReq
      0: system.cpu.dcache_port: received snoop pkt for addr:0xfac0 WriteReq
      0: system.cpu.dcache_port: received snoop pkt for addr:0xfb00 WriteReq
      0: system.cpu.dcache_port: received snoop pkt for addr:0xfb40 WriteReq
      0: system.cpu.dcache_port: received snoop pkt for addr:0xfb80 WriteReq
      0: system.cpu.dcache_port: received snoop pkt for addr:0xfbc0 WriteReq
      0: system.cpu.dcache_port: received snoop pkt for addr:0xfc00 WriteReq
      0: system.cpu.dcache_port: received snoop pkt for addr:0xfc40 WriteReq
      0: system.cpu.dcache_port: received snoop pkt for addr:0xfc80 WriteReq
      0: system.cpu.dcache_port: received snoop pkt for addr:0xfcc0 WriteReq
      0: system.cpu.dcache_port: received snoop pkt for addr:0xfd00 WriteReq
      0: system.cpu.dcache_port: received snoop pkt for addr:0xfd40 WriteReq
      0: system.cpu.dcache_port: received snoop pkt for addr:0xfd80 WriteReq
      0: system.cpu.dcache_port: received snoop pkt for addr:0xfdc0 WriteReq
      0: system.cpu.dcache_port: received snoop pkt for addr:0xfe00 WriteReq
      0: system.cpu.dcache_port: received snoop pkt for addr:0xfe40 WriteReq
      0: system.cpu.dcache_port: received snoop pkt for addr:0xfe80 WriteReq
      0: system.cpu.dcache_port: received snoop pkt for addr:0xfec0 WriteReq
      0: system.cpu.dcache_port: received snoop pkt for addr:0xff00 WriteReq
      0: system.cpu.dcache_port: received snoop pkt for addr:0xff40 WriteReq
      0: system.cpu.dcache_port: received snoop pkt for addr:0xff80 WriteReq
[...]
46000000: system.energy_mgmt: end of consume energy!
46000000: system.cpu: I'm here
46000000: system.energy_mgmt.state_machine: [SM_Retention] State = 2, energy=320.022, thres_ret_1 = 130
46000000: system.energy_mgmt: end of consume energy!
47000000: system.cpu: Tick
47000000: system.cpu: received snoop pkt for addr:0x77da8 WriteResp
47000000: system.cpu: heyyyyyyyyyyyyyyy 1.3
47000000: system.energy_mgmt: Energy 1.3 is consumed by AtomicCPU. Energy remained: 318.722
47000000: system.energy_mgmt.state_machine: [SM_Retention] State = 2, energy=318.722, thres_ret_1 = 130
47000000: system.energy_mgmt: end of consume energy!
47000000: system.cpu: I'm here
47000000: system.energy_mgmt.state_machine: [SM_Retention] State = 2, energy=320.596, thres_ret_1 = 130
47000000: system.energy_mgmt: end of consume energy!
48000000: system.cpu: Tick
48000000: system.cpu: heyyyyyyyyyyyyyyy 1.3
48000000: system.energy_mgmt: Energy 1.3 is consumed by AtomicCPU. Energy remained: 319.296
48000000: system.energy_mgmt.state_machine: [SM_Retention] State = 2, energy=319.296, thres_ret_1 = 130
48000000: system.energy_mgmt: end of consume energy!
48000000: system.cpu: I'm here
48000000: system.energy_mgmt.state_machine: [SM_Retention] State = 2, energy=320.549, thres_ret_1 = 130
48000000: system.energy_mgmt: end of consume energy!
49000000: system.cpu: Tick
49000000: system.cpu: heyyyyyyyyyyyyyyy 1.3
49000000: system.energy_mgmt: Energy 1.3 is consumed by AtomicCPU. Energy remained: 319.249
49000000: system.energy_mgmt.state_machine: [SM_Retention] State = 2, energy=319.249, thres_ret_1 = 130
49000000: system.energy_mgmt: end of consume energy!
49000000: system.cpu: I'm here
49000000: system.energy_mgmt.state_machine: [SM_Retention] State = 2, energy=319.877, thres_ret_1 = 130
49000000: system.energy_mgmt: end of consume energy!
50000000: system.cpu: Tick
50000000: system.cpu: heyyyyyyyyyyyyyyy 1.3
50000000: system.energy_mgmt: Energy 1.3 is consumed by AtomicCPU. Energy remained: 318.577
50000000: system.energy_mgmt.state_machine: [SM_Retention] State = 2, energy=318.577, thres_ret_1 = 130
50000000: system.energy_mgmt: end of consume energy!
50000000: system.cpu: I'm here
50000000: system.energy_mgmt.state_machine: [SM_Retention] State = 2, energy=318.577, thres_ret_1 = 130
50000000: system.energy_mgmt: end of consume energy!
51000000: system.cpu: Tick
51000000: system.cpu: heyyyyyyyyyyyyyyy 1.3
51000000: system.energy_mgmt: Energy 1.3 is consumed by AtomicCPU. Energy remained: 317.277
51000000: system.energy_mgmt.state_machine: [SM_Retention] State = 2, energy=317.277, thres_ret_1 = 130
51000000: system.energy_mgmt: end of consume energy!
51000000: system.cpu: I'm here
51000000: system.energy_mgmt.state_machine: [SM_Retention] State = 2, energy=316.649, thres_ret_1 = 130
51000000: system.energy_mgmt: end of consume energy!
52000000: system.cpu: Tick
52000000: system.cpu: heyyyyyyyyyyyyyyy 1.3
52000000: system.energy_mgmt: Energy 1.3 is consumed by AtomicCPU. Energy remained: 315.349
52000000: system.energy_mgmt.state_machine: [SM_Retention] State = 2, energy=315.349, thres_ret_1 = 130
52000000: system.energy_mgmt: end of consume energy!
52000000: system.cpu: I'm here
52000000: system.energy_mgmt.state_machine: [SM_Retention] State = 2, energy=314.096, thres_ret_1 = 130
52000000: system.energy_mgmt: end of consume energy!
53000000: system.cpu: Tick
53000000: system.cpu: heyyyyyyyyyyyyyyy 1.3
53000000: system.energy_mgmt: Energy 1.3 is consumed by AtomicCPU. Energy remained: 312.796
53000000: system.energy_mgmt.state_machine: [SM_Retention] State = 2, energy=312.796, thres_ret_1 = 130
53000000: system.energy_mgmt: end of consume energy!
53000000: system.cpu: I'm here
53000000: system.energy_mgmt.state_machine: [SM_Retention] State = 2, energy=310.922, thres_ret_1 = 130
53000000: system.energy_mgmt: end of consume energy!
54000000: system.cpu: Tick
54000000: system.cpu: heyyyyyyyyyyyyyyy 1.3
54000000: system.energy_mgmt: Energy 1.3 is consumed by AtomicCPU. Energy remained: 309.622
54000000: system.energy_mgmt.state_machine: [SM_Retention] State = 2, energy=309.622, thres_ret_1 = 130
54000000: system.energy_mgmt: end of consume energy!
54000000: system.cpu: I'm here
54000000: system.energy_mgmt.state_machine: [SM_Retention] State = 2, energy=307.135, thres_ret_1 = 130
54000000: system.energy_mgmt: end of consume energy!
55000000: system.cpu: Tick
55000000: system.cpu: heyyyyyyyyyyyyyyy 1.3
55000000: system.energy_mgmt: Energy 1.3 is consumed by AtomicCPU. Energy remained: 305.835
55000000: system.energy_mgmt.state_machine: [SM_Retention] State = 2, energy=305.835, thres_ret_1 = 130
55000000: system.energy_mgmt: end of consume energy!
55000000: system.cpu: I'm here
55000000: system.energy_mgmt.state_machine: [SM_Retention] State = 2, energy=302.745, thres_ret_1 = 130
55000000: system.energy_mgmt: end of consume energy!
56000000: system.cpu: Tick
56000000: system.cpu: heyyyyyyyyyyyyyyy 1.3
56000000: system.energy_mgmt: Energy 1.3 is consumed by AtomicCPU. Energy remained: 301.445
56000000: system.energy_mgmt.state_machine: [SM_Retention] State = 2, energy=301.445, thres_ret_1 = 130
56000000: system.energy_mgmt: end of consume energy!
56000000: system.cpu: I'm here
56000000: system.energy_mgmt.state_machine: [SM_Retention] State = 2, energy=297.764, thres_ret_1 = 130
56000000: system.energy_mgmt: end of consume energy!
57000000: system.cpu: Tick
57000000: system.cpu: heyyyyyyyyyyyyyyy 1.3
57000000: system.energy_mgmt: Energy 1.3 is consumed by AtomicCPU. Energy remained: 296.464
57000000: system.energy_mgmt.state_machine: [SM_Retention] State = 2, energy=296.464, thres_ret_1 = 130
57000000: system.energy_mgmt: end of consume energy!
57000000: system.cpu: I'm here
57000000: system.energy_mgmt.state_machine: [SM_Retention] State = 2, energy=292.206, thres_ret_1 = 130
57000000: system.energy_mgmt: end of consume energy!
58000000: system.cpu: Tick
58000000: system.cpu: heyyyyyyyyyyyyyyy 1.3
58000000: system.energy_mgmt: Energy 1.3 is consumed by AtomicCPU. Energy remained: 290.906
58000000: system.energy_mgmt.state_machine: [SM_Retention] State = 2, energy=290.906, thres_ret_1 = 130
58000000: system.energy_mgmt: end of consume energy!
58000000: system.cpu: I'm here
58000000: system.energy_mgmt.state_machine: [SM_Retention] State = 2, energy=286.089, thres_ret_1 = 130
58000000: system.energy_mgmt: end of consume energy!
59000000: system.cpu: Tick
59000000: system.cpu: heyyyyyyyyyyyyyyy 1.3
59000000: system.energy_mgmt: Energy 1.3 is consumed by AtomicCPU. Energy remained: 284.789
59000000: system.energy_mgmt.state_machine: [SM_Retention] State = 2, energy=284.789, thres_ret_1 = 130
59000000: system.energy_mgmt: end of consume energy!
59000000: system.cpu: I'm here
59000000: system.energy_mgmt.state_machine: [SM_Retention] State = 2, energy=279.43, thres_ret_1 = 130
59000000: system.energy_mgmt: end of consume energy!
60000000: system.cpu: Tick
60000000: system.cpu: received snoop pkt for addr:0x75508 WriteResp
60000000: system.cpu: heyyyyyyyyyyyyyyy 1.3
60000000: system.energy_mgmt: Energy 1.3 is consumed by AtomicCPU. Energy remained: 278.13
60000000: system.energy_mgmt.state_machine: [SM_Retention] State = 2, energy=278.13, thres_ret_1 = 130
60000000: system.energy_mgmt: end of consume energy!
60000000: system.cpu: I'm here
60000000: system.energy_mgmt.state_machine: [SM_Retention] State = 2, energy=272.252, thres_ret_1 = 130
60000000: system.energy_mgmt: end of consume energy!
61000000: system.cpu: Tick
61000000: system.cpu: heyyyyyyyyyyyyyyy 1.3
61000000: system.energy_mgmt: Energy 1.3 is consumed by AtomicCPU. Energy remained: 270.952
61000000: system.energy_mgmt.state_machine: [SM_Retention] State = 2, energy=270.952, thres_ret_1 = 130
61000000: system.energy_mgmt: end of consume energy!
61000000: system.cpu: I'm here
61000000: system.energy_mgmt.state_machine: [SM_Retention] State = 2, energy=264.578, thres_ret_1 = 130
61000000: system.energy_mgmt: end of consume energy!
62000000: system.cpu: Tick
62000000: system.cpu: heyyyyyyyyyyyyyyy 1.3
62000000: system.energy_mgmt: Energy 1.3 is consumed by AtomicCPU. Energy remained: 263.278
62000000: system.energy_mgmt.state_machine: [SM_Retention] State = 2, energy=263.278, thres_ret_1 = 130
62000000: system.energy_mgmt: end of consume energy!
62000000: system.cpu: I'm here
62000000: system.energy_mgmt.state_machine: [SM_Retention] State = 2, energy=256.433, thres_ret_1 = 130
62000000: system.energy_mgmt: end of consume energy!
63000000: system.cpu: Tick
63000000: system.cpu: received snoop pkt for addr:0x74fd8 WriteResp
63000000: system.cpu: heyyyyyyyyyyyyyyy 1.3
63000000: system.energy_mgmt: Energy 1.3 is consumed by AtomicCPU. Energy remained: 255.133
63000000: system.energy_mgmt.state_machine: [SM_Retention] State = 2, energy=255.133, thres_ret_1 = 130
63000000: system.energy_mgmt: end of consume energy!
63000000: system.cpu: I'm here
63000000: system.energy_mgmt.state_machine: [SM_Retention] State = 2, energy=247.843, thres_ret_1 = 130
63000000: system.energy_mgmt: end of consume energy!
64000000: system.cpu: Tick
64000000: system.cpu: received snoop pkt for addr:0x764fc WriteResp
64000000: system.cpu: heyyyyyyyyyyyyyyy 1.3
64000000: system.energy_mgmt: Energy 1.3 is consumed by AtomicCPU. Energy remained: 246.543
64000000: system.energy_mgmt.state_machine: [SM_Retention] State = 2, energy=246.543, thres_ret_1 = 130
64000000: system.energy_mgmt: end of consume energy!
64000000: system.cpu: I'm here
64000000: system.energy_mgmt.state_machine: [SM_Retention] State = 2, energy=238.838, thres_ret_1 = 130
64000000: system.energy_mgmt: end of consume energy!
65000000: system.cpu: Tick
65000000: system.cpu: heyyyyyyyyyyyyyyy 1.3
65000000: system.energy_mgmt: Energy 1.3 is consumed by AtomicCPU. Energy remained: 237.538
65000000: system.energy_mgmt.state_machine: [SM_Retention] State = 2, energy=237.538, thres_ret_1 = 130
65000000: system.energy_mgmt: end of consume energy!
65000000: system.cpu: I'm here
65000000: system.energy_mgmt.state_machine: [SM_Retention] State = 2, energy=229.448, thres_ret_1 = 130
65000000: system.energy_mgmt: end of consume energy!
66000000: system.cpu: heyyyyyyyyyyyyyyy 1.3
66000000: system.energy_mgmt: Energy 1.3 is consumed by AtomicCPU. Energy remained: 228.148
66000000: system.energy_mgmt.state_machine: [SM_Retention] State = 2, energy=228.148, thres_ret_1 = 130
66000000: system.energy_mgmt: end of consume energy!
66000000: system.cpu: I'm here
66000000: system.energy_mgmt.state_machine: [SM_Retention] State = 2, energy=219.704, thres_ret_1 = 130
66000000: system.energy_mgmt: end of consume energy!
67000000: system.cpu: Tick
67000000: system.cpu: heyyyyyyyyyyyyyyy 1.3
67000000: system.energy_mgmt: Energy 1.3 is consumed by AtomicCPU. Energy remained: 218.404
67000000: system.energy_mgmt.state_machine: [SM_Retention] State = 2, energy=218.404, thres_ret_1 = 130
67000000: system.energy_mgmt: end of consume energy!
67000000: system.cpu: I'm here
67000000: system.energy_mgmt.state_machine: [SM_Retention] State = 2, energy=209.641, thres_ret_1 = 130
67000000: system.energy_mgmt: end of consume energy!
68000000: system.cpu: Tick
68000000: system.cpu: heyyyyyyyyyyyyyyy 1.3
68000000: system.energy_mgmt: Energy 1.3 is consumed by AtomicCPU. Energy remained: 208.341
68000000: system.energy_mgmt.state_machine: [SM_Retention] State = 2, energy=208.341, thres_ret_1 = 130
68000000: system.energy_mgmt: end of consume energy!
68000000: system.cpu: I'm here
68000000: system.energy_mgmt.state_machine: [SM_Retention] State = 2, energy=199.293, thres_ret_1 = 130
68000000: system.energy_mgmt: end of consume energy!
69000000: system.cpu: Tick
69000000: system.cpu: heyyyyyyyyyyyyyyy 1.3
69000000: system.energy_mgmt: Energy 1.3 is consumed by AtomicCPU. Energy remained: 197.993
69000000: system.energy_mgmt.state_machine: [SM_Retention] State = 2, energy=197.993, thres_ret_1 = 130
69000000: system.energy_mgmt: end of consume energy!
69000000: system.cpu: I'm here
69000000: system.energy_mgmt.state_machine: [SM_Retention] State = 2, energy=188.695, thres_ret_1 = 130
69000000: system.energy_mgmt: end of consume energy!
70000000: system.cpu: Tick
70000000: system.cpu: heyyyyyyyyyyyyyyy 1.3
70000000: system.energy_mgmt: Energy 1.3 is consumed by AtomicCPU. Energy remained: 187.395
70000000: system.energy_mgmt.state_machine: [SM_Retention] State = 2, energy=187.395, thres_ret_1 = 130
70000000: system.energy_mgmt: end of consume energy!
70000000: system.cpu: I'm here
70000000: system.energy_mgmt.state_machine: [SM_Retention] State = 2, energy=177.885, thres_ret_1 = 130
70000000: system.energy_mgmt: end of consume energy!
71000000: system.cpu: Tick
71000000: system.cpu: heyyyyyyyyyyyyyyy 1.3
71000000: system.energy_mgmt: Energy 1.3 is consumed by AtomicCPU. Energy remained: 176.585
71000000: system.energy_mgmt.state_machine: [SM_Retention] State = 2, energy=176.585, thres_ret_1 = 130
71000000: system.energy_mgmt: end of consume energy!
71000000: system.cpu: I'm here
71000000: system.energy_mgmt.state_machine: [SM_Retention] State = 2, energy=166.899, thres_ret_1 = 130
71000000: system.energy_mgmt: end of consume energy!
72000000: system.cpu: Tick
72000000: system.cpu: received snoop pkt for addr:0x77d80 WriteResp
72000000: system.cpu: heyyyyyyyyyyyyyyy 1.3
72000000: system.energy_mgmt: Energy 1.3 is consumed by AtomicCPU. Energy remained: 165.599
72000000: system.energy_mgmt.state_machine: [SM_Retention] State = 2, energy=165.599, thres_ret_1 = 130
72000000: system.energy_mgmt: end of consume energy!
72000000: system.cpu: I'm here
72000000: system.energy_mgmt.state_machine: [SM_Retention] State = 2, energy=155.776, thres_ret_1 = 130
72000000: system.energy_mgmt: end of consume energy!
73000000: system.cpu: received snoop pkt for addr:0x77d84 WriteResp
73000000: system.cpu: heyyyyyyyyyyyyyyy 1.3
73000000: system.energy_mgmt: Energy 1.3 is consumed by AtomicCPU. Energy remained: 154.476
73000000: system.energy_mgmt.state_machine: [SM_Retention] State = 2, energy=154.476, thres_ret_1 = 130
73000000: system.energy_mgmt: end of consume energy!
73000000: system.cpu: I'm here
73000000: system.energy_mgmt.state_machine: [SM_Retention] State = 2, energy=144.555, thres_ret_1 = 130
73000000: system.energy_mgmt: end of consume energy!
74000000: system.cpu: received snoop pkt for addr:0x77d88 WriteResp
74000000: system.cpu: heyyyyyyyyyyyyyyy 1.3
74000000: system.energy_mgmt: Energy 1.3 is consumed by AtomicCPU. Energy remained: 143.255
74000000: system.energy_mgmt.state_machine: [SM_Retention] State = 2, energy=143.255, thres_ret_1 = 130
74000000: system.energy_mgmt: end of consume energy!
74000000: system.cpu: I'm here
74000000: system.energy_mgmt.state_machine: [SM_Retention] State = 2, energy=133.275, thres_ret_1 = 130
74000000: system.energy_mgmt: end of consume energy!
75000000: system.cpu: received snoop pkt for addr:0x77d8c WriteResp
75000000: system.cpu: heyyyyyyyyyyyyyyy 1.3
75000000: system.energy_mgmt: Energy 1.3 is consumed by AtomicCPU. Energy remained: 131.975
75000000: system.energy_mgmt.state_machine: [SM_Retention] State = 2, energy=131.975, thres_ret_1 = 130
75000000: system.energy_mgmt: end of consume energy!
75000000: system.cpu: I'm here
75000000: system.energy_mgmt.state_machine: [SM_Retention] State = 2, energy=121.975, thres_ret_1 = 130
75000000: system.energy_mgmt: end of consume energy!
76000000: system.cpu: received snoop pkt for addr:0x77d90 WriteResp
76000000: system.cpu: heyyyyyyyyyyyyyyy 1.3
76000000: system.energy_mgmt: Energy 1.3 is consumed by AtomicCPU. Energy remained: 120.675
76000000: system.energy_mgmt.state_machine: [SM_Retention] State = 2, energy=120.675, thres_ret_1 = 130
76000000: system.energy_mgmt: end of consume energy!
76000000: system.cpu: I'm here
76000000: system.energy_mgmt.state_machine: [SM_Retention] State = 2, energy=110.694, thres_ret_1 = 130
76000000: system.energy_mgmt.state_machine: [SM_Retention] State change: POWER_ON->POWER_RET, energy=110.694, thres=120.
76000000: system.energy_mgmt: end of consume energy!
76000000: system.cpu: [SM_Retention] handleMsg called at 76000000, msg.type=2
76000000: system.cpu: [TickEvent] Tick status:scheduled
77000000: system.energy_mgmt.state_machine: [SM_Retention] State = 1, energy=100.773, thres_ret_1 = 130
77000000: system.energy_mgmt: end of consume energy!
78000000: system.energy_mgmt.state_machine: [SM_Retention] State = 1, energy=90.9504, thres_ret_1 = 130
78000000: system.energy_mgmt: end of consume energy!
79000000: system.energy_mgmt.state_machine: [SM_Retention] State = 1, energy=81.2646, thres_ret_1 = 130
79000000: system.energy_mgmt: end of consume energy!
80000000: system.energy_mgmt.state_machine: [SM_Retention] State = 1, energy=71.754, thres_ret_1 = 130
80000000: system.energy_mgmt: end of consume energy!
81000000: system.energy_mgmt.state_machine: [SM_Retention] State = 1, energy=62.4562, thres_ret_1 = 130
81000000: system.energy_mgmt: end of consume energy!
82000000: system.energy_mgmt.state_machine: [SM_Retention] State = 1, energy=53.408, thres_ret_1 = 130
82000000: system.energy_mgmt: end of consume energy!
83000000: system.energy_mgmt.state_machine: [SM_Retention] State = 1, energy=44.6449, thres_ret_1 = 130
83000000: system.energy_mgmt: end of consume energy!
84000000: system.energy_mgmt.state_machine: [SM_Retention] State = 1, energy=40, thres_ret_1 = 130
84000000: system.energy_mgmt: end of consume energy!
84000000: system.cpu: [SM_Retention] handleMsg called at 84000000, msg.type=1
84000000: system.cpu: [TickEvent] Tick status:unscheduled
85000000: system.energy_mgmt.state_machine: [SM_Retention] State = 0, energy=40, thres_ret_1 = 130
85000000: system.energy_mgmt: end of consume energy!
86000000: system.energy_mgmt.state_machine: [SM_Retention] State = 0, energy=40, thres_ret_1 = 130
86000000: system.energy_mgmt: end of consume energy!
87000000: system.energy_mgmt.state_machine: [SM_Retention] State = 0, energy=40, thres_ret_1 = 130
87000000: system.energy_mgmt: end of consume energy!
88000000: system.energy_mgmt.state_machine: [SM_Retention] State = 0, energy=40, thres_ret_1 = 130
88000000: system.energy_mgmt: end of consume energy!
89000000: system.energy_mgmt.state_machine: [SM_Retention] State = 0, energy=40, thres_ret_1 = 130
89000000: system.energy_mgmt: end of consume energy!
90000000: system.energy_mgmt.state_machine: [SM_Retention] State = 0, energy=40, thres_ret_1 = 130
90000000: system.energy_mgmt: end of consume energy!
91000000: system.energy_mgmt.state_machine: [SM_Retention] State = 0, energy=40, thres_ret_1 = 130
91000000: system.energy_mgmt: end of consume energy!
92000000: system.energy_mgmt.state_machine: [SM_Retention] State = 0, energy=40, thres_ret_1 = 130
92000000: system.energy_mgmt: end of consume energy!
93000000: system.energy_mgmt.state_machine: [SM_Retention] State = 0, energy=40, thres_ret_1 = 130
93000000: system.energy_mgmt: end of consume energy!
94000000: system.energy_mgmt.state_machine: [SM_Retention] State = 0, energy=40, thres_ret_1 = 130
94000000: system.energy_mgmt: end of consume energy!
95000000: system.energy_mgmt.state_machine: [SM_Retention] State = 0, energy=40, thres_ret_1 = 130
95000000: system.energy_mgmt: end of consume energy!
96000000: system.energy_mgmt.state_machine: [SM_Retention] State = 0, energy=40, thres_ret_1 = 130
96000000: system.energy_mgmt: end of consume energy!
97000000: system.energy_mgmt.state_machine: [SM_Retention] State = 0, energy=40, thres_ret_1 = 130
97000000: system.energy_mgmt: end of consume energy!
98000000: system.energy_mgmt.state_machine: [SM_Retention] State = 0, energy=40, thres_ret_1 = 130
98000000: system.energy_mgmt: end of consume energy!
99000000: system.energy_mgmt.state_machine: [SM_Retention] State = 0, energy=40, thres_ret_1 = 130
99000000: system.energy_mgmt: end of consume energy!
100000000: system.energy_mgmt: [EngyMgmt] Data empty
Exiting @ tick 18446744073709551615 because simulate() limit reached
